* File: miniALU16.pex.netlist.pex
* Created: Wed Nov 13 18:39:49 2019
* Program "Calibre xRC"
* Version "v2013.4_26.18"
* Nominal Temperature: 27C
* Circuit Temperature: 27C
* 
.subckt PM_MINIALU16_X56.6 4 8 14 16
c0 41 0 0.287596f
c1 39 0 0.0728f
c2 37 0 0.02121f
c3 36 0 0.254103f
c4 34 0 0.127492f
c5 26 0 0.206696f
c6 24 0 0.033096f
c7 23 0 0.03801f
c8 22 0 0.137175f
c9 21 0 0.120003f
c10 20 0 0.03192f
c11 17 0 0.14595f
c12 13 0 0.0455407f
c13 12 0 0.208917f
c14 8 0 0.376694f
c15 4 0 0.381412f
r16 39 41 0.0451795
r17 32 37 0.0338756
r18 32 41 0.605714
r19 29 37 0.00880368
r20 29 36 0.533333
r21 24 36 0.0451795
r22 24 26 0.12
r23 22 37 0.0338756
r24 22 23 0.287619
r25 21 23 0.0446983
r26 20 34 0.0451795
r27 20 21 0.253333
r28 17 43 0.147922
r29 17 48 8.81074
r30 17 46 8.81074
r31 17 39 11.07
r32 17 34 7.805
r33 17 26 5.17667
r34 16 17 1.29176
r35 14 43 1.67935
r36 12 13 11.2903
r37 12 48 65
r38 8 46 70
r39 4 13 57.5
.ends

.subckt PM_MINIALU16_X56.8 1 2
c0 19 0 0.056653f
c1 15 0 0.127492f
c2 13 0 0.03192f
c3 12 0 0.03801f
c4 11 0 0.20324f
c5 10 0 0.056653f
c6 6 0 0.127492f
c7 4 0 0.03192f
r8 18 19 0.12
r9 13 19 0.0425897
r10 13 15 0.12
r11 11 18 0.0446983
r12 11 12 0.346667
r13 9 12 0.0446983
r14 9 10 0.12
r15 4 10 0.0425897
r16 4 6 0.12
r17 3 20 0.147922
r18 3 15 7.805
r19 3 6 7.805
r20 2 3 1.82727
r21 1 20 1.67935
.ends

.subckt PM_MINIALU16_X57.6 4 8 14 16
c0 41 0 0.294027f
c1 39 0 0.073934f
c2 37 0 0.0220605f
c3 36 0 0.25518f
c4 34 0 0.127492f
c5 26 0 0.206452f
c6 24 0 0.03192f
c7 23 0 0.0388605f
c8 22 0 0.140225f
c9 21 0 0.120406f
c10 20 0 0.03192f
c11 17 0 0.146411f
c12 13 0 0.0455407f
c13 12 0 0.209477f
c14 8 0 0.376775f
c15 4 0 0.380852f
r16 39 41 0.0451795
r17 32 37 0.0338756
r18 32 41 0.605714
r19 29 37 0.00880368
r20 29 36 0.533333
r21 24 36 0.0451795
r22 24 26 0.12
r23 22 37 0.0338756
r24 22 23 0.287619
r25 21 23 0.0446983
r26 20 34 0.0451795
r27 20 21 0.253333
r28 17 43 0.147922
r29 17 48 8.81074
r30 17 46 8.81074
r31 17 39 11.07
r32 17 34 7.805
r33 17 26 5.17667
r34 16 17 1.29176
r35 14 43 1.67935
r36 12 13 11.2903
r37 12 48 65
r38 8 46 70
r39 4 13 57.5
.ends

.subckt PM_MINIALU16_X57.8 1 2
c0 19 0 0.056653f
c1 15 0 0.127492f
c2 13 0 0.03192f
c3 12 0 0.03801f
c4 11 0 0.2066f
c5 10 0 0.056653f
c6 6 0 0.127492f
c7 4 0 0.03192f
r8 18 19 0.12
r9 13 19 0.0425897
r10 13 15 0.12
r11 11 18 0.0446983
r12 11 12 0.346667
r13 9 12 0.0446983
r14 9 10 0.12
r15 4 10 0.0425897
r16 4 6 0.12
r17 3 20 0.147922
r18 3 15 7.805
r19 3 6 7.805
r20 2 3 1.82727
r21 1 20 1.67935
.ends

.subckt PM_MINIALU16_X58.6 4 8 14 16
c0 41 0 0.293623f
c1 39 0 0.0728f
c2 37 0 0.021714f
c3 36 0 0.25593f
c4 34 0 0.127492f
c5 26 0 0.206452f
c6 24 0 0.03192f
c7 23 0 0.038514f
c8 22 0 0.141862f
c9 21 0 0.120003f
c10 20 0 0.03192f
c11 17 0 0.14595f
c12 13 0 0.0455407f
c13 12 0 0.208917f
c14 8 0 0.376694f
c15 4 0 0.380852f
r16 39 41 0.0451795
r17 32 37 0.0338756
r18 32 41 0.605714
r19 29 37 0.00880368
r20 29 36 0.533333
r21 24 36 0.0451795
r22 24 26 0.12
r23 22 37 0.0338756
r24 22 23 0.287619
r25 21 23 0.0446983
r26 20 34 0.0451795
r27 20 21 0.253333
r28 17 43 0.147922
r29 17 48 8.81074
r30 17 46 8.81074
r31 17 39 11.07
r32 17 34 7.805
r33 17 26 5.17667
r34 16 17 1.29176
r35 14 43 1.67935
r36 12 13 11.2903
r37 12 48 65
r38 8 46 70
r39 4 13 57.5
.ends

.subckt PM_MINIALU16_X58.8 1 2
c0 19 0 0.056653f
c1 15 0 0.127492f
c2 13 0 0.03192f
c3 12 0 0.03801f
c4 11 0 0.2066f
c5 10 0 0.056653f
c6 6 0 0.127492f
c7 4 0 0.03192f
r8 18 19 0.12
r9 13 19 0.0425897
r10 13 15 0.12
r11 11 18 0.0446983
r12 11 12 0.346667
r13 9 12 0.0446983
r14 9 10 0.12
r15 4 10 0.0425897
r16 4 6 0.12
r17 3 20 0.147922
r18 3 15 7.805
r19 3 6 7.805
r20 2 3 1.82727
r21 1 20 1.67935
.ends

.subckt PM_MINIALU16_X59.6 4 8 14 16
c0 41 0 0.287596f
c1 39 0 0.0728f
c2 37 0 0.02121f
c3 36 0 0.25392f
c4 34 0 0.127492f
c5 26 0 0.206452f
c6 24 0 0.03192f
c7 23 0 0.03801f
c8 22 0 0.137175f
c9 21 0 0.120003f
c10 20 0 0.03192f
c11 17 0 0.14595f
c12 13 0 0.0455407f
c13 12 0 0.209477f
c14 8 0 0.376694f
c15 4 0 0.380852f
r16 39 41 0.0451795
r17 32 37 0.0338756
r18 32 41 0.605714
r19 29 37 0.00880368
r20 29 36 0.533333
r21 24 36 0.0451795
r22 24 26 0.12
r23 22 37 0.0338756
r24 22 23 0.287619
r25 21 23 0.0446983
r26 20 34 0.0451795
r27 20 21 0.253333
r28 17 43 0.147922
r29 17 48 8.81074
r30 17 46 8.81074
r31 17 39 11.07
r32 17 34 7.805
r33 17 26 5.17667
r34 16 17 1.29176
r35 14 43 1.67935
r36 12 13 11.2903
r37 12 48 65
r38 8 46 70
r39 4 13 57.5
.ends

.subckt PM_MINIALU16_X59.8 1 2
c0 19 0 0.056653f
c1 15 0 0.127492f
c2 13 0 0.03192f
c3 12 0 0.03801f
c4 11 0 0.20324f
c5 10 0 0.056653f
c6 6 0 0.127492f
c7 4 0 0.03192f
r8 18 19 0.12
r9 13 19 0.0425897
r10 13 15 0.12
r11 11 18 0.0446983
r12 11 12 0.346667
r13 9 12 0.0446983
r14 9 10 0.12
r15 4 10 0.0425897
r16 4 6 0.12
r17 3 20 0.147922
r18 3 15 7.805
r19 3 6 7.805
r20 2 3 1.82727
r21 1 20 1.67935
.ends

.subckt PM_MINIALU16_X60.6 4 8 14 16
c0 41 0 0.294027f
c1 39 0 0.074427f
c2 37 0 0.0220605f
c3 36 0 0.25518f
c4 34 0 0.127694f
c5 26 0 0.206452f
c6 24 0 0.03192f
c7 23 0 0.0388605f
c8 22 0 0.140225f
c9 21 0 0.12062f
c10 20 0 0.033096f
c11 17 0 0.146502f
c12 13 0 0.0455453f
c13 12 0 0.209519f
c14 8 0 0.377335f
c15 4 0 0.380957f
r16 39 41 0.0451795
r17 32 37 0.0338756
r18 32 41 0.605714
r19 29 37 0.00880368
r20 29 36 0.533333
r21 24 36 0.0451795
r22 24 26 0.12
r23 22 37 0.0338756
r24 22 23 0.287619
r25 21 23 0.0446983
r26 20 34 0.0451795
r27 20 21 0.253333
r28 17 43 0.147922
r29 17 48 8.81074
r30 17 46 8.81074
r31 17 39 11.07
r32 17 34 7.805
r33 17 26 5.17667
r34 16 17 1.29176
r35 14 43 1.67935
r36 12 13 11.2903
r37 12 48 65
r38 8 46 70
r39 4 13 57.5
.ends

.subckt PM_MINIALU16_X60.8 1 2
c0 19 0 0.0572117f
c1 15 0 0.129816f
c2 13 0 0.0322532f
c3 12 0 0.03801f
c4 11 0 0.203615f
c5 10 0 0.056653f
c6 6 0 0.128878f
c7 4 0 0.03192f
r8 18 19 0.12
r9 13 19 0.0425897
r10 13 15 0.12
r11 11 18 0.0446983
r12 11 12 0.346667
r13 9 12 0.0446983
r14 9 10 0.12
r15 4 10 0.0425897
r16 4 6 0.12
r17 3 20 0.147922
r18 3 15 7.805
r19 3 6 7.805
r20 2 3 1.82727
r21 1 20 1.67935
.ends

.subckt PM_MINIALU16_X61.6 4 8 14 16
c0 41 0 0.287747f
c1 39 0 0.0728f
c2 37 0 0.024402f
c3 36 0 0.265038f
c4 34 0 0.127492f
c5 26 0 0.206452f
c6 24 0 0.03192f
c7 23 0 0.03801f
c8 22 0 0.137175f
c9 21 0 0.120003f
c10 20 0 0.03192f
c11 17 0 0.14595f
c12 13 0 0.0455407f
c13 12 0 0.209477f
c14 8 0 0.376694f
c15 4 0 0.380852f
r16 39 41 0.0451795
r17 32 37 0.0338756
r18 32 41 0.605714
r19 29 37 0.00880368
r20 29 36 0.533333
r21 24 36 0.0451795
r22 24 26 0.12
r23 22 37 0.0338756
r24 22 23 0.287619
r25 21 23 0.0446983
r26 20 34 0.0451795
r27 20 21 0.253333
r28 17 43 0.147922
r29 17 48 8.81074
r30 17 46 8.81074
r31 17 39 11.07
r32 17 34 7.805
r33 17 26 5.17667
r34 16 17 1.29176
r35 14 43 1.67935
r36 12 13 11.2903
r37 12 48 65
r38 8 46 70
r39 4 13 57.5
.ends

.subckt PM_MINIALU16_X61.8 1 2
c0 19 0 0.056653f
c1 15 0 0.127492f
c2 13 0 0.03192f
c3 12 0 0.03801f
c4 11 0 0.20324f
c5 10 0 0.056653f
c6 6 0 0.127492f
c7 4 0 0.03192f
r8 18 19 0.12
r9 13 19 0.0425897
r10 13 15 0.12
r11 11 18 0.0446983
r12 11 12 0.346667
r13 9 12 0.0446983
r14 9 10 0.12
r15 4 10 0.0425897
r16 4 6 0.12
r17 3 20 0.147922
r18 3 15 7.805
r19 3 6 7.805
r20 2 3 1.82727
r21 1 20 1.67935
.ends

.subckt PM_MINIALU16_X62.6 4 8 14 16
c0 41 0 0.294316f
c1 39 0 0.0728f
c2 37 0 0.023226f
c3 36 0 0.267881f
c4 34 0 0.127492f
c5 26 0 0.22156f
c6 24 0 0.0343585f
c7 23 0 0.03801f
c8 22 0 0.138502f
c9 21 0 0.120003f
c10 20 0 0.03192f
c11 17 0 0.14595f
c12 13 0 0.0455407f
c13 12 0 0.208917f
c14 8 0 0.376694f
c15 4 0 0.380852f
r16 39 41 0.0451795
r17 32 37 0.0338756
r18 32 41 0.605714
r19 29 37 0.00880368
r20 29 36 0.533333
r21 24 36 0.0451795
r22 24 26 0.12
r23 22 37 0.0338756
r24 22 23 0.287619
r25 21 23 0.0446983
r26 20 34 0.0451795
r27 20 21 0.253333
r28 17 43 0.147922
r29 17 48 8.81074
r30 17 46 8.81074
r31 17 39 11.07
r32 17 34 7.805
r33 17 26 5.17667
r34 16 17 1.29176
r35 14 43 1.67935
r36 12 13 11.2903
r37 12 48 65
r38 8 46 70
r39 4 13 57.5
.ends

.subckt PM_MINIALU16_X62.8 1 2
c0 19 0 0.0576546f
c1 15 0 0.130846f
c2 13 0 0.03276f
c3 12 0 0.03801f
c4 11 0 0.209943f
c5 10 0 0.056653f
c6 6 0 0.127492f
c7 4 0 0.03192f
r8 18 19 0.12
r9 13 19 0.0425897
r10 13 15 0.12
r11 11 18 0.0446983
r12 11 12 0.346667
r13 9 12 0.0446983
r14 9 10 0.12
r15 4 10 0.0425897
r16 4 6 0.12
r17 3 20 0.147922
r18 3 15 7.805
r19 3 6 7.805
r20 2 3 1.82727
r21 1 20 1.67935
.ends

.subckt PM_MINIALU16_X63.6 4 8 14 16
c0 41 0 0.287596f
c1 39 0 0.0728f
c2 37 0 0.02121f
c3 36 0 0.25518f
c4 34 0 0.127492f
c5 26 0 0.206452f
c6 24 0 0.03192f
c7 23 0 0.03801f
c8 22 0 0.137175f
c9 21 0 0.120003f
c10 20 0 0.03192f
c11 17 0 0.14595f
c12 13 0 0.045826f
c13 12 0 0.212882f
c14 8 0 0.376694f
c15 4 0 0.384676f
r16 39 41 0.0451795
r17 32 37 0.0338756
r18 32 41 0.605714
r19 29 37 0.00880368
r20 29 36 0.533333
r21 24 36 0.0451795
r22 24 26 0.12
r23 22 37 0.0338756
r24 22 23 0.287619
r25 21 23 0.0446983
r26 20 34 0.0451795
r27 20 21 0.253333
r28 17 43 0.147922
r29 17 48 8.81074
r30 17 46 8.81074
r31 17 39 11.07
r32 17 34 7.805
r33 17 26 5.17667
r34 16 17 1.29176
r35 14 43 1.67935
r36 12 13 11.2903
r37 12 48 65
r38 8 46 70
r39 4 13 57.5
.ends

.subckt PM_MINIALU16_X63.8 1 2
c0 19 0 0.056653f
c1 15 0 0.127492f
c2 13 0 0.03192f
c3 12 0 0.03801f
c4 11 0 0.20324f
c5 10 0 0.056653f
c6 6 0 0.127492f
c7 4 0 0.03192f
r8 18 19 0.12
r9 13 19 0.0425897
r10 13 15 0.12
r11 11 18 0.0446983
r12 11 12 0.346667
r13 9 12 0.0446983
r14 9 10 0.12
r15 4 10 0.0425897
r16 4 6 0.12
r17 3 20 0.147922
r18 3 15 7.805
r19 3 6 7.805
r20 2 3 1.82727
r21 1 20 1.67935
.ends

.subckt PM_MINIALU16_X64.6 4 8 14 16
c0 41 0 0.287596f
c1 39 0 0.0728f
c2 37 0 0.02121f
c3 36 0 0.25644f
c4 34 0 0.127492f
c5 26 0 0.206452f
c6 24 0 0.03192f
c7 23 0 0.03801f
c8 22 0 0.140535f
c9 21 0 0.120003f
c10 20 0 0.03192f
c11 17 0 0.14595f
c12 13 0 0.0455407f
c13 12 0 0.209477f
c14 8 0 0.376694f
c15 4 0 0.380852f
r16 39 41 0.0451795
r17 32 37 0.0338756
r18 32 41 0.605714
r19 29 37 0.00880368
r20 29 36 0.533333
r21 24 36 0.0451795
r22 24 26 0.12
r23 22 37 0.0338756
r24 22 23 0.287619
r25 21 23 0.0446983
r26 20 34 0.0451795
r27 20 21 0.253333
r28 17 43 0.147922
r29 17 48 8.81074
r30 17 46 8.81074
r31 17 39 11.07
r32 17 34 7.805
r33 17 26 5.17667
r34 16 17 1.29176
r35 14 43 1.67935
r36 12 13 11.2903
r37 12 48 65
r38 8 46 70
r39 4 13 57.5
.ends

.subckt PM_MINIALU16_X64.8 1 2
c0 19 0 0.056653f
c1 15 0 0.127492f
c2 13 0 0.03192f
c3 12 0 0.03801f
c4 11 0 0.20324f
c5 10 0 0.056653f
c6 6 0 0.127492f
c7 4 0 0.03192f
r8 18 19 0.12
r9 13 19 0.0425897
r10 13 15 0.12
r11 11 18 0.0446983
r12 11 12 0.346667
r13 9 12 0.0446983
r14 9 10 0.12
r15 4 10 0.0425897
r16 4 6 0.12
r17 3 20 0.147922
r18 3 15 7.805
r19 3 6 7.805
r20 2 3 1.82727
r21 1 20 1.67935
.ends

.subckt PM_MINIALU16_X65.6 4 8 14 16
c0 41 0 0.287596f
c1 39 0 0.0728f
c2 37 0 0.02121f
c3 36 0 0.25518f
c4 34 0 0.127492f
c5 26 0 0.206452f
c6 24 0 0.03192f
c7 23 0 0.03801f
c8 22 0 0.140535f
c9 21 0 0.120003f
c10 20 0 0.03192f
c11 17 0 0.14595f
c12 13 0 0.0457577f
c13 12 0 0.208917f
c14 8 0 0.376694f
c15 4 0 0.381157f
r16 39 41 0.0451795
r17 32 37 0.0338756
r18 32 41 0.605714
r19 29 37 0.00880368
r20 29 36 0.533333
r21 24 36 0.0451795
r22 24 26 0.12
r23 22 37 0.0338756
r24 22 23 0.287619
r25 21 23 0.0446983
r26 20 34 0.0451795
r27 20 21 0.253333
r28 17 43 0.147922
r29 17 48 8.81074
r30 17 46 8.81074
r31 17 39 11.07
r32 17 34 7.805
r33 17 26 5.17667
r34 16 17 1.29176
r35 14 43 1.67935
r36 12 13 11.2903
r37 12 48 65
r38 8 46 70
r39 4 13 57.5
.ends

.subckt PM_MINIALU16_X65.8 1 2
c0 19 0 0.056653f
c1 15 0 0.127492f
c2 13 0 0.03192f
c3 12 0 0.03801f
c4 11 0 0.20324f
c5 10 0 0.056653f
c6 6 0 0.127492f
c7 4 0 0.03192f
r8 18 19 0.12
r9 13 19 0.0425897
r10 13 15 0.12
r11 11 18 0.0446983
r12 11 12 0.346667
r13 9 12 0.0446983
r14 9 10 0.12
r15 4 10 0.0425897
r16 4 6 0.12
r17 3 20 0.147922
r18 3 15 7.805
r19 3 6 7.805
r20 2 3 1.82727
r21 1 20 1.67935
.ends

.subckt PM_MINIALU16_X66.6 4 8 14 16
c0 41 0 0.290956f
c1 39 0 0.0728f
c2 37 0 0.02121f
c3 36 0 0.25518f
c4 34 0 0.127492f
c5 26 0 0.208997f
c6 24 0 0.03192f
c7 23 0 0.0385455f
c8 22 0 0.141718f
c9 21 0 0.121981f
c10 20 0 0.03192f
c11 17 0 0.14595f
c12 13 0 0.0455407f
c13 12 0 0.209603f
c14 8 0 0.376694f
c15 4 0 0.381412f
r16 39 41 0.0451795
r17 32 37 0.0338756
r18 32 41 0.605714
r19 29 37 0.00880368
r20 29 36 0.533333
r21 24 36 0.0451795
r22 24 26 0.12
r23 22 37 0.0338756
r24 22 23 0.287619
r25 21 23 0.0446983
r26 20 34 0.0451795
r27 20 21 0.253333
r28 17 43 0.147922
r29 17 48 8.81074
r30 17 46 8.81074
r31 17 39 11.07
r32 17 34 7.805
r33 17 26 5.17667
r34 16 17 1.29176
r35 14 43 1.67935
r36 12 13 11.2903
r37 12 48 65
r38 8 46 70
r39 4 13 57.5
.ends

.subckt PM_MINIALU16_X66.8 1 2
c0 19 0 0.056653f
c1 15 0 0.127492f
c2 13 0 0.03192f
c3 12 0 0.03801f
c4 11 0 0.20324f
c5 10 0 0.056653f
c6 6 0 0.127492f
c7 4 0 0.03192f
r8 18 19 0.12
r9 13 19 0.0425897
r10 13 15 0.12
r11 11 18 0.0446983
r12 11 12 0.346667
r13 9 12 0.0446983
r14 9 10 0.12
r15 4 10 0.0425897
r16 4 6 0.12
r17 3 20 0.147922
r18 3 15 7.805
r19 3 6 7.805
r20 2 3 1.82727
r21 1 20 1.67935
.ends

.subckt PM_MINIALU16_X67.6 4 8 14 16
c0 41 0 0.287596f
c1 39 0 0.0728f
c2 37 0 0.02121f
c3 36 0 0.25644f
c4 34 0 0.127492f
c5 26 0 0.206452f
c6 24 0 0.03192f
c7 23 0 0.03801f
c8 22 0 0.137175f
c9 21 0 0.120003f
c10 20 0 0.03192f
c11 17 0 0.14595f
c12 13 0 0.0457577f
c13 12 0 0.209477f
c14 8 0 0.376694f
c15 4 0 0.381157f
r16 39 41 0.0451795
r17 32 37 0.0338756
r18 32 41 0.605714
r19 29 37 0.00880368
r20 29 36 0.533333
r21 24 36 0.0451795
r22 24 26 0.12
r23 22 37 0.0338756
r24 22 23 0.287619
r25 21 23 0.0446983
r26 20 34 0.0451795
r27 20 21 0.253333
r28 17 43 0.147922
r29 17 48 8.81074
r30 17 46 8.81074
r31 17 39 11.07
r32 17 34 7.805
r33 17 26 5.17667
r34 16 17 1.29176
r35 14 43 1.67935
r36 12 13 11.2903
r37 12 48 65
r38 8 46 70
r39 4 13 57.5
.ends

.subckt PM_MINIALU16_X67.8 1 2
c0 19 0 0.056653f
c1 15 0 0.127492f
c2 13 0 0.03192f
c3 12 0 0.03801f
c4 11 0 0.20324f
c5 10 0 0.056653f
c6 6 0 0.127492f
c7 4 0 0.03192f
r8 18 19 0.12
r9 13 19 0.0425897
r10 13 15 0.12
r11 11 18 0.0446983
r12 11 12 0.346667
r13 9 12 0.0446983
r14 9 10 0.12
r15 4 10 0.0425897
r16 4 6 0.12
r17 3 20 0.147922
r18 3 15 7.805
r19 3 6 7.805
r20 2 3 1.82727
r21 1 20 1.67935
.ends

.subckt PM_MINIALU16_X68.6 4 8 14 16
c0 41 0 0.287596f
c1 39 0 0.0728f
c2 37 0 0.02121f
c3 36 0 0.255457f
c4 34 0 0.127492f
c5 26 0 0.20825f
c6 24 0 0.033096f
c7 23 0 0.03801f
c8 22 0 0.137175f
c9 21 0 0.121263f
c10 20 0 0.03192f
c11 17 0 0.14595f
c12 13 0 0.0455407f
c13 12 0 0.209477f
c14 8 0 0.376778f
c15 4 0 0.382196f
r16 39 41 0.0451795
r17 32 37 0.0338756
r18 32 41 0.605714
r19 29 37 0.00880368
r20 29 36 0.533333
r21 24 36 0.0451795
r22 24 26 0.12
r23 22 37 0.0338756
r24 22 23 0.287619
r25 21 23 0.0446983
r26 20 34 0.0451795
r27 20 21 0.253333
r28 17 43 0.147922
r29 17 48 8.81074
r30 17 46 8.81074
r31 17 39 11.07
r32 17 34 7.805
r33 17 26 5.17667
r34 16 17 1.29176
r35 14 43 1.67935
r36 12 13 11.2903
r37 12 48 65
r38 8 46 70
r39 4 13 57.5
.ends

.subckt PM_MINIALU16_X68.8 1 2
c0 19 0 0.056653f
c1 15 0 0.127492f
c2 13 0 0.03192f
c3 12 0 0.03801f
c4 11 0 0.20324f
c5 10 0 0.056653f
c6 6 0 0.127492f
c7 4 0 0.03192f
r8 18 19 0.12
r9 13 19 0.0425897
r10 13 15 0.12
r11 11 18 0.0446983
r12 11 12 0.346667
r13 9 12 0.0446983
r14 9 10 0.12
r15 4 10 0.0425897
r16 4 6 0.12
r17 3 20 0.147922
r18 3 15 7.805
r19 3 6 7.805
r20 2 3 1.82727
r21 1 20 1.67935
.ends

.subckt PM_MINIALU16_X69.6 4 8 14 16
c0 41 0 0.287596f
c1 39 0 0.0728f
c2 37 0 0.02121f
c3 36 0 0.25392f
c4 34 0 0.136503f
c5 26 0 0.206578f
c6 24 0 0.03192f
c7 23 0 0.040194f
c8 22 0 0.137175f
c9 21 0 0.127046f
c10 20 0 0.034272f
c11 17 0 0.14595f
c12 13 0 0.0468673f
c13 12 0 0.20975f
c14 8 0 0.376694f
c15 4 0 0.38769f
r16 39 41 0.0451795
r17 32 37 0.0338756
r18 32 41 0.605714
r19 29 37 0.00880368
r20 29 36 0.533333
r21 24 36 0.0451795
r22 24 26 0.12
r23 22 37 0.0338756
r24 22 23 0.287619
r25 21 23 0.0446983
r26 20 34 0.0451795
r27 20 21 0.253333
r28 17 43 0.147922
r29 17 48 8.81074
r30 17 46 8.81074
r31 17 39 11.07
r32 17 34 7.805
r33 17 26 5.17667
r34 16 17 1.29176
r35 14 43 1.67935
r36 12 13 11.2903
r37 12 48 65
r38 8 46 70
r39 4 13 57.5
.ends

.subckt PM_MINIALU16_X69.8 1 2
c0 19 0 0.056653f
c1 15 0 0.127492f
c2 13 0 0.03192f
c3 12 0 0.03801f
c4 11 0 0.20324f
c5 10 0 0.056653f
c6 6 0 0.127492f
c7 4 0 0.03192f
r8 18 19 0.12
r9 13 19 0.0425897
r10 13 15 0.12
r11 11 18 0.0446983
r12 11 12 0.346667
r13 9 12 0.0446983
r14 9 10 0.12
r15 4 10 0.0425897
r16 4 6 0.12
r17 3 20 0.147922
r18 3 15 7.805
r19 3 6 7.805
r20 2 3 1.82727
r21 1 20 1.67935
.ends

.subckt PM_MINIALU16_X70.6 4 8 14 16
c0 41 0 0.290956f
c1 39 0 0.0728f
c2 37 0 0.02121f
c3 36 0 0.25644f
c4 34 0 0.127492f
c5 26 0 0.206452f
c6 24 0 0.03192f
c7 23 0 0.03801f
c8 22 0 0.137175f
c9 21 0 0.120003f
c10 20 0 0.03192f
c11 17 0 0.14595f
c12 13 0 0.0455407f
c13 12 0 0.209477f
c14 8 0 0.376694f
c15 4 0 0.380852f
r16 39 41 0.0451795
r17 32 37 0.0338756
r18 32 41 0.605714
r19 29 37 0.00880368
r20 29 36 0.533333
r21 24 36 0.0451795
r22 24 26 0.12
r23 22 37 0.0338756
r24 22 23 0.287619
r25 21 23 0.0446983
r26 20 34 0.0451795
r27 20 21 0.253333
r28 17 43 0.147922
r29 17 48 8.81074
r30 17 46 8.81074
r31 17 39 11.07
r32 17 34 7.805
r33 17 26 5.17667
r34 16 17 1.29176
r35 14 43 1.67935
r36 12 13 11.2903
r37 12 48 65
r38 8 46 70
r39 4 13 57.5
.ends

.subckt PM_MINIALU16_X70.8 1 2
c0 19 0 0.056653f
c1 15 0 0.127492f
c2 13 0 0.03192f
c3 12 0 0.040782f
c4 11 0 0.203811f
c5 10 0 0.0607846f
c6 6 0 0.136436f
c7 4 0 0.03416f
r8 18 19 0.12
r9 13 19 0.0425897
r10 13 15 0.12
r11 11 18 0.0446983
r12 11 12 0.346667
r13 9 12 0.0446983
r14 9 10 0.12
r15 4 10 0.0425897
r16 4 6 0.12
r17 3 20 0.147922
r18 3 15 7.805
r19 3 6 7.805
r20 2 3 1.82727
r21 1 20 1.67935
.ends

.subckt PM_MINIALU16_X71.6 4 8 14 16
c0 41 0 0.296199f
c1 39 0 0.07427f
c2 37 0 0.022092f
c3 36 0 0.255552f
c4 34 0 0.127492f
c5 26 0 0.208132f
c6 24 0 0.03192f
c7 23 0 0.038892f
c8 22 0 0.140338f
c9 21 0 0.121263f
c10 20 0 0.03192f
c11 17 0 0.146439f
c12 13 0 0.0455407f
c13 12 0 0.209659f
c14 8 0 0.377184f
c15 4 0 0.381412f
r16 39 41 0.0451795
r17 32 37 0.0338756
r18 32 41 0.605714
r19 29 37 0.00880368
r20 29 36 0.533333
r21 24 36 0.0451795
r22 24 26 0.12
r23 22 37 0.0338756
r24 22 23 0.287619
r25 21 23 0.0446983
r26 20 34 0.0451795
r27 20 21 0.253333
r28 17 43 0.147922
r29 17 48 8.81074
r30 17 46 8.81074
r31 17 39 11.07
r32 17 34 7.805
r33 17 26 5.17667
r34 16 17 1.29176
r35 14 43 1.67935
r36 12 13 11.2903
r37 12 48 65
r38 8 46 70
r39 4 13 57.5
.ends

.subckt PM_MINIALU16_X71.8 1 2
c0 19 0 0.056653f
c1 15 0 0.127492f
c2 13 0 0.03192f
c3 12 0 0.03801f
c4 11 0 0.20324f
c5 10 0 0.056653f
c6 6 0 0.127492f
c7 4 0 0.03192f
r8 18 19 0.12
r9 13 19 0.0425897
r10 13 15 0.12
r11 11 18 0.0446983
r12 11 12 0.346667
r13 9 12 0.0446983
r14 9 10 0.12
r15 4 10 0.0425897
r16 4 6 0.12
r17 3 20 0.147922
r18 3 15 7.805
r19 3 6 7.805
r20 2 3 1.82727
r21 1 20 1.67935
.ends

.subckt PM_MINIALU16_X72.6 4 8 14 16
c0 41 0 0.290956f
c1 39 0 0.0728f
c2 37 0 0.02121f
c3 36 0 0.25392f
c4 34 0 0.129568f
c5 26 0 0.206452f
c6 24 0 0.03192f
c7 23 0 0.03801f
c8 22 0 0.140535f
c9 21 0 0.120003f
c10 20 0 0.0329016f
c11 17 0 0.14595f
c12 13 0 0.0457f
c13 12 0 0.212882f
c14 8 0 0.376694f
c15 4 0 0.384512f
r16 39 41 0.0451795
r17 32 37 0.0338756
r18 32 41 0.605714
r19 29 37 0.00880368
r20 29 36 0.533333
r21 24 36 0.0451795
r22 24 26 0.12
r23 22 37 0.0338756
r24 22 23 0.287619
r25 21 23 0.0446983
r26 20 34 0.0451795
r27 20 21 0.253333
r28 17 43 0.147922
r29 17 48 8.81074
r30 17 46 8.81074
r31 17 39 11.07
r32 17 34 7.805
r33 17 26 5.17667
r34 16 17 1.29176
r35 14 43 1.67935
r36 12 13 11.2903
r37 12 48 65
r38 8 46 70
r39 4 13 57.5
.ends

.subckt PM_MINIALU16_X72.8 1 2
c0 19 0 0.056653f
c1 15 0 0.127492f
c2 13 0 0.03192f
c3 12 0 0.040866f
c4 11 0 0.203727f
c5 10 0 0.0609098f
c6 6 0 0.136436f
c7 4 0 0.03416f
r8 18 19 0.12
r9 13 19 0.0425897
r10 13 15 0.12
r11 11 18 0.0446983
r12 11 12 0.346667
r13 9 12 0.0446983
r14 9 10 0.12
r15 4 10 0.0425897
r16 4 6 0.12
r17 3 20 0.147922
r18 3 15 7.805
r19 3 6 7.805
r20 2 3 1.82727
r21 1 20 1.67935
.ends

.subckt PM_MINIALU16_X73.6 4 8 14 16
c0 41 0 0.290956f
c1 39 0 0.0728f
c2 37 0 0.02121f
c3 36 0 0.25518f
c4 34 0 0.128114f
c5 26 0 0.209258f
c6 24 0 0.032886f
c7 23 0 0.039144f
c8 22 0 0.142603f
c9 21 0 0.121263f
c10 20 0 0.03297f
c11 17 0 0.146097f
c12 13 0 0.0455873f
c13 12 0 0.208917f
c14 8 0 0.376708f
c15 4 0 0.382147f
r16 39 41 0.0451795
r17 32 37 0.0338756
r18 32 41 0.605714
r19 29 37 0.00880368
r20 29 36 0.533333
r21 24 36 0.0451795
r22 24 26 0.12
r23 22 37 0.0338756
r24 22 23 0.287619
r25 21 23 0.0446983
r26 20 34 0.0451795
r27 20 21 0.253333
r28 17 43 0.147922
r29 17 48 8.81074
r30 17 46 8.81074
r31 17 39 11.07
r32 17 34 7.805
r33 17 26 5.17667
r34 16 17 1.29176
r35 14 43 1.67935
r36 12 13 11.2903
r37 12 48 65
r38 8 46 70
r39 4 13 57.5
.ends

.subckt PM_MINIALU16_X73.8 1 2
c0 19 0 0.059157f
c1 15 0 0.133529f
c2 13 0 0.033432f
c3 12 0 0.0382935f
c4 11 0 0.207824f
c5 10 0 0.056653f
c6 6 0 0.129156f
c7 4 0 0.03192f
r8 18 19 0.12
r9 13 19 0.0425897
r10 13 15 0.12
r11 11 18 0.0446983
r12 11 12 0.346667
r13 9 12 0.0446983
r14 9 10 0.12
r15 4 10 0.0425897
r16 4 6 0.12
r17 3 20 0.147922
r18 3 15 7.805
r19 3 6 7.805
r20 2 3 1.82727
r21 1 20 1.67935
.ends

.subckt PM_MINIALU16_X74.6 4 8 14 16
c0 41 0 0.287596f
c1 39 0 0.0728f
c2 37 0 0.02121f
c3 36 0 0.255457f
c4 34 0 0.129172f
c5 26 0 0.20825f
c6 24 0 0.033096f
c7 23 0 0.03801f
c8 22 0 0.137175f
c9 21 0 0.120003f
c10 20 0 0.03192f
c11 17 0 0.14595f
c12 13 0 0.0455407f
c13 12 0 0.209505f
c14 8 0 0.377254f
c15 4 0 0.382196f
r16 39 41 0.0451795
r17 32 37 0.0338756
r18 32 41 0.605714
r19 29 37 0.00880368
r20 29 36 0.533333
r21 24 36 0.0451795
r22 24 26 0.12
r23 22 37 0.0338756
r24 22 23 0.287619
r25 21 23 0.0446983
r26 20 34 0.0451795
r27 20 21 0.253333
r28 17 43 0.147922
r29 17 48 8.81074
r30 17 46 8.81074
r31 17 39 11.07
r32 17 34 7.805
r33 17 26 5.17667
r34 16 17 1.29176
r35 14 43 1.67935
r36 12 13 11.2903
r37 12 48 65
r38 8 46 70
r39 4 13 57.5
.ends

.subckt PM_MINIALU16_X74.8 1 2
c0 19 0 0.056653f
c1 15 0 0.129172f
c2 13 0 0.03192f
c3 12 0 0.03801f
c4 11 0 0.20324f
c5 10 0 0.056653f
c6 6 0 0.129172f
c7 4 0 0.03192f
r8 18 19 0.12
r9 13 19 0.0425897
r10 13 15 0.12
r11 11 18 0.0446983
r12 11 12 0.346667
r13 9 12 0.0446983
r14 9 10 0.12
r15 4 10 0.0425897
r16 4 6 0.12
r17 3 20 0.147922
r18 3 15 7.805
r19 3 6 7.805
r20 2 3 1.82727
r21 1 20 1.67935
.ends

.subckt PM_MINIALU16_X75.6 4 8 14 16
c0 41 0 0.296171f
c1 39 0 0.07448f
c2 37 0 0.024054f
c3 36 0 0.27109f
c4 34 0 0.128114f
c5 26 0 0.222918f
c6 24 0 0.034436f
c7 23 0 0.039144f
c8 22 0 0.14408f
c9 21 0 0.121263f
c10 20 0 0.03297f
c11 17 0 0.146248f
c12 13 0 0.0455407f
c13 12 0 0.209477f
c14 8 0 0.376708f
c15 4 0 0.382147f
r16 39 41 0.0451795
r17 32 37 0.0338756
r18 32 41 0.605714
r19 29 37 0.00880368
r20 29 36 0.533333
r21 24 36 0.0451795
r22 24 26 0.12
r23 22 37 0.0338756
r24 22 23 0.287619
r25 21 23 0.0446983
r26 20 34 0.0451795
r27 20 21 0.253333
r28 17 43 0.147922
r29 17 48 8.81074
r30 17 46 8.81074
r31 17 39 11.07
r32 17 34 7.805
r33 17 26 5.17667
r34 16 17 1.29176
r35 14 43 1.67935
r36 12 13 11.2903
r37 12 48 65
r38 8 46 70
r39 4 13 57.5
.ends

.subckt PM_MINIALU16_X75.8 1 2
c0 19 0 0.056653f
c1 15 0 0.127492f
c2 13 0 0.03192f
c3 12 0 0.0382935f
c4 11 0 0.204749f
c5 10 0 0.056653f
c6 6 0 0.127492f
c7 4 0 0.03192f
r8 18 19 0.12
r9 13 19 0.0425897
r10 13 15 0.12
r11 11 18 0.0446983
r12 11 12 0.346667
r13 9 12 0.0446983
r14 9 10 0.12
r15 4 10 0.0425897
r16 4 6 0.12
r17 3 20 0.147922
r18 3 15 7.805
r19 3 6 7.805
r20 2 3 1.82727
r21 1 20 1.67935
.ends

.subckt PM_MINIALU16_X76.6 4 8 14 16
c0 41 0 0.290956f
c1 39 0 0.07728f
c2 37 0 0.02121f
c3 36 0 0.25392f
c4 34 0 0.128114f
c5 26 0 0.206452f
c6 24 0 0.03192f
c7 23 0 0.03801f
c8 22 0 0.140535f
c9 21 0 0.120003f
c10 20 0 0.03297f
c11 17 0 0.14644f
c12 13 0 0.045553f
c13 12 0 0.209477f
c14 8 0 0.376694f
c15 4 0 0.381134f
r16 39 41 0.0451795
r17 32 37 0.0338756
r18 32 41 0.605714
r19 29 37 0.00880368
r20 29 36 0.533333
r21 24 36 0.0451795
r22 24 26 0.12
r23 22 37 0.0338756
r24 22 23 0.287619
r25 21 23 0.0446983
r26 20 34 0.0451795
r27 20 21 0.253333
r28 17 43 0.147922
r29 17 48 8.81074
r30 17 46 8.81074
r31 17 39 11.07
r32 17 34 7.805
r33 17 26 5.17667
r34 16 17 1.29176
r35 14 43 1.67935
r36 12 13 11.2903
r37 12 48 65
r38 8 46 70
r39 4 13 57.5
.ends

.subckt PM_MINIALU16_X76.8 1 2
c0 19 0 0.0592822f
c1 15 0 0.133753f
c2 13 0 0.033488f
c3 12 0 0.03801f
c4 11 0 0.205004f
c5 10 0 0.056653f
c6 6 0 0.129172f
c7 4 0 0.03192f
r8 18 19 0.12
r9 13 19 0.0425897
r10 13 15 0.12
r11 11 18 0.0446983
r12 11 12 0.346667
r13 9 12 0.0446983
r14 9 10 0.12
r15 4 10 0.0425897
r16 4 6 0.12
r17 3 20 0.147922
r18 3 15 7.805
r19 3 6 7.805
r20 2 3 1.82727
r21 1 20 1.67935
.ends

.subckt PM_MINIALU16_X77.6 4 8 14 16
c0 41 0 0.290956f
c1 39 0 0.0728f
c2 37 0 0.02121f
c3 36 0 0.25392f
c4 34 0 0.128744f
c5 26 0 0.208132f
c6 24 0 0.03192f
c7 23 0 0.03801f
c8 22 0 0.140535f
c9 21 0 0.120003f
c10 20 0 0.03234f
c11 17 0 0.14595f
c12 13 0 0.045651f
c13 12 0 0.211974f
c14 8 0 0.377254f
c15 4 0 0.383766f
r16 39 41 0.0451795
r17 32 37 0.0338756
r18 32 41 0.605714
r19 29 37 0.00880368
r20 29 36 0.533333
r21 24 36 0.0451795
r22 24 26 0.12
r23 22 37 0.0338756
r24 22 23 0.287619
r25 21 23 0.0446983
r26 20 34 0.0451795
r27 20 21 0.253333
r28 17 43 0.147922
r29 17 48 8.81074
r30 17 46 8.81074
r31 17 39 11.07
r32 17 34 7.805
r33 17 26 5.17667
r34 16 17 1.29176
r35 14 43 1.67935
r36 12 13 11.2903
r37 12 48 65
r38 8 46 70
r39 4 13 57.5
.ends

.subckt PM_MINIALU16_X77.8 1 2
c0 19 0 0.056653f
c1 15 0 0.129172f
c2 13 0 0.03192f
c3 12 0 0.04053f
c4 11 0 0.204063f
c5 10 0 0.060409f
c6 6 0 0.136335f
c7 4 0 0.033992f
r8 18 19 0.12
r9 13 19 0.0425897
r10 13 15 0.12
r11 11 18 0.0446983
r12 11 12 0.346667
r13 9 12 0.0446983
r14 9 10 0.12
r15 4 10 0.0425897
r16 4 6 0.12
r17 3 20 0.147922
r18 3 15 7.805
r19 3 6 7.805
r20 2 3 1.82727
r21 1 20 1.67935
.ends

.subckt PM_MINIALU16_X78.6 4 8 14 16
c0 41 0 0.293613f
c1 39 0 0.076852f
c2 37 0 0.02121f
c3 36 0 0.25392f
c4 34 0 0.136916f
c5 26 0 0.209812f
c6 24 0 0.03192f
c7 23 0 0.040866f
c8 22 0 0.137662f
c9 21 0 0.12902f
c10 20 0 0.03416f
c11 17 0 0.146875f
c12 13 0 0.0457f
c13 12 0 0.212882f
c14 8 0 0.383378f
c15 4 0 0.383606f
r16 39 41 0.0451795
r17 32 37 0.0338756
r18 32 41 0.605714
r19 29 37 0.00880368
r20 29 36 0.533333
r21 24 36 0.0451795
r22 24 26 0.12
r23 22 37 0.0338756
r24 22 23 0.287619
r25 21 23 0.0446983
r26 20 34 0.0451795
r27 20 21 0.253333
r28 17 43 0.147922
r29 17 48 8.81074
r30 17 46 8.81074
r31 17 39 11.07
r32 17 34 7.805
r33 17 26 5.17667
r34 16 17 1.29176
r35 14 43 1.67935
r36 12 13 11.2903
r37 12 48 65
r38 8 46 70
r39 4 13 57.5
.ends

.subckt PM_MINIALU16_X78.8 1 2
c0 19 0 0.056653f
c1 15 0 0.129172f
c2 13 0 0.03192f
c3 12 0 0.03801f
c4 11 0 0.20324f
c5 10 0 0.056653f
c6 6 0 0.129172f
c7 4 0 0.03192f
r8 18 19 0.12
r9 13 19 0.0425897
r10 13 15 0.12
r11 11 18 0.0446983
r12 11 12 0.346667
r13 9 12 0.0446983
r14 9 10 0.12
r15 4 10 0.0425897
r16 4 6 0.12
r17 3 20 0.147922
r18 3 15 7.805
r19 3 6 7.805
r20 2 3 1.82727
r21 1 20 1.67935
.ends

.subckt PM_MINIALU16_X79.6 4 8 14 16
c0 41 0 0.287596f
c1 39 0 0.0728f
c2 37 0 0.02121f
c3 36 0 0.25518f
c4 34 0 0.127492f
c5 26 0 0.208132f
c6 24 0 0.03192f
c7 23 0 0.03801f
c8 22 0 0.140535f
c9 21 0 0.121263f
c10 20 0 0.03192f
c11 17 0 0.14595f
c12 13 0 0.0455407f
c13 12 0 0.209477f
c14 8 0 0.377184f
c15 4 0 0.381412f
r16 39 41 0.0451795
r17 32 37 0.0338756
r18 32 41 0.605714
r19 29 37 0.00880368
r20 29 36 0.533333
r21 24 36 0.0451795
r22 24 26 0.12
r23 22 37 0.0338756
r24 22 23 0.287619
r25 21 23 0.0446983
r26 20 34 0.0451795
r27 20 21 0.253333
r28 17 43 0.147922
r29 17 48 8.81074
r30 17 46 8.81074
r31 17 39 11.07
r32 17 34 7.805
r33 17 26 5.17667
r34 16 17 1.29176
r35 14 43 1.67935
r36 12 13 11.2903
r37 12 48 65
r38 8 46 70
r39 4 13 57.5
.ends

.subckt PM_MINIALU16_X79.8 1 2
c0 19 0 0.056653f
c1 15 0 0.127492f
c2 13 0 0.03192f
c3 12 0 0.03801f
c4 11 0 0.20324f
c5 10 0 0.056653f
c6 6 0 0.127492f
c7 4 0 0.03192f
r8 18 19 0.12
r9 13 19 0.0425897
r10 13 15 0.12
r11 11 18 0.0446983
r12 11 12 0.346667
r13 9 12 0.0446983
r14 9 10 0.12
r15 4 10 0.0425897
r16 4 6 0.12
r17 3 20 0.147922
r18 3 15 7.805
r19 3 6 7.805
r20 2 3 1.82727
r21 1 20 1.67935
.ends

.subckt PM_MINIALU16_X80.6 4 8 14 16
c0 41 0 0.287596f
c1 39 0 0.0728f
c2 37 0 0.02121f
c3 36 0 0.25644f
c4 34 0 0.127492f
c5 26 0 0.206452f
c6 24 0 0.03192f
c7 23 0 0.039144f
c8 22 0 0.142603f
c9 21 0 0.121263f
c10 20 0 0.03192f
c11 17 0 0.14595f
c12 13 0 0.0457267f
c13 12 0 0.209477f
c14 8 0 0.376708f
c15 4 0 0.38088f
r16 39 41 0.0451795
r17 32 37 0.0338756
r18 32 41 0.605714
r19 29 37 0.00880368
r20 29 36 0.533333
r21 24 36 0.0451795
r22 24 26 0.12
r23 22 37 0.0338756
r24 22 23 0.287619
r25 21 23 0.0446983
r26 20 34 0.0451795
r27 20 21 0.253333
r28 17 43 0.147922
r29 17 48 8.81074
r30 17 46 8.81074
r31 17 39 11.07
r32 17 34 7.805
r33 17 26 5.17667
r34 16 17 1.29176
r35 14 43 1.67935
r36 12 13 11.2903
r37 12 48 65
r38 8 46 70
r39 4 13 57.5
.ends

.subckt PM_MINIALU16_X80.8 1 2
c0 19 0 0.056653f
c1 15 0 0.127492f
c2 13 0 0.03192f
c3 12 0 0.03801f
c4 11 0 0.20324f
c5 10 0 0.056653f
c6 6 0 0.127492f
c7 4 0 0.03192f
r8 18 19 0.12
r9 13 19 0.0425897
r10 13 15 0.12
r11 11 18 0.0446983
r12 11 12 0.346667
r13 9 12 0.0446983
r14 9 10 0.12
r15 4 10 0.0425897
r16 4 6 0.12
r17 3 20 0.147922
r18 3 15 7.805
r19 3 6 7.805
r20 2 3 1.82727
r21 1 20 1.67935
.ends

.subckt PM_MINIALU16_X81.6 4 8 14 16
c0 41 0 0.287596f
c1 39 0 0.0728f
c2 37 0 0.02121f
c3 36 0 0.25518f
c4 34 0 0.128744f
c5 26 0 0.208132f
c6 24 0 0.03192f
c7 23 0 0.03927f
c8 22 0 0.142665f
c9 21 0 0.121263f
c10 20 0 0.03234f
c11 17 0 0.14595f
c12 13 0 0.0455407f
c13 12 0 0.209477f
c14 8 0 0.377254f
c15 4 0 0.380852f
r16 39 41 0.0451795
r17 32 37 0.0338756
r18 32 41 0.605714
r19 29 37 0.00880368
r20 29 36 0.533333
r21 24 36 0.0451795
r22 24 26 0.12
r23 22 37 0.0338756
r24 22 23 0.287619
r25 21 23 0.0446983
r26 20 34 0.0451795
r27 20 21 0.253333
r28 17 43 0.147922