* File: miniALU16.pex.netlist
* Created: Wed Nov 13 18:39:49 2019
* Program "Calibre xRC"
* Version "v2013.4_26.18"
* 
.global VDD VSS 
.include "miniALU16.pex.netlist.pex"
.subckt MINIALU16  COUT INPUT2[7] INPUT2[8] INPUT1[2] OUTPUT[2] OUTPUT[8]
+ INPUT2[2] INPUT1[1] INPUT1[13] INPUT1[8] INPUT1[7] INPUT2[13] OUTPUT[7]
+ OUTPUT[1] INPUT2[10] OUTPUT[13] INPUT2[1] INPUT1[10] OUTPUT[10] INPUT1[9]
+ INPUT2[4] OUTPUT[9] INPUT2[9] INPUT2[3] INPUT1[3] INPUT1[12] OUTPUT[3]
+ INPUT1[4] INPUT2[12] CONTROL[0] OUTPUT[4] INPUT1[11] CONTROL[1] INPUT2[0]
+ OUTPUT[12] INPUT2[5] OUTPUT[0] INPUT1[0] INPUT1[15] INPUT1[6] INPUT2[11]
+ INPUT2[6] INPUT1[14] OUTPUT[15] INPUT1[5] INPUT2[14] OUTPUT[14] OUTPUT[5]
+ OUTPUT[6] INPUT2[15] OUTPUT[11]
* 
* OUTPUT[11]	OUTPUT[11]
* INPUT2[15]	INPUT2[15]
* OUTPUT[6]	OUTPUT[6]
* OUTPUT[5]	OUTPUT[5]
* OUTPUT[14]	OUTPUT[14]
* INPUT2[14]	INPUT2[14]
* INPUT1[5]	INPUT1[5]
* OUTPUT[15]	OUTPUT[15]
* INPUT1[14]	INPUT1[14]
* INPUT2[6]	INPUT2[6]
* INPUT2[11]	INPUT2[11]
* INPUT1[6]	INPUT1[6]
* INPUT1[15]	INPUT1[15]
* INPUT1[0]	INPUT1[0]
* OUTPUT[0]	OUTPUT[0]
* INPUT2[5]	INPUT2[5]
* OUTPUT[12]	OUTPUT[12]
* INPUT2[0]	INPUT2[0]
* CONTROL[1]	CONTROL[1]
* INPUT1[11]	INPUT1[11]
* OUTPUT[4]	OUTPUT[4]
* CONTROL[0]	CONTROL[0]
* INPUT2[12]	INPUT2[12]
* INPUT1[4]	INPUT1[4]
* OUTPUT[3]	OUTPUT[3]
* INPUT1[12]	INPUT1[12]
* INPUT1[3]	INPUT1[3]
* INPUT2[3]	INPUT2[3]
* INPUT2[9]	INPUT2[9]
* OUTPUT[9]	OUTPUT[9]
* INPUT2[4]	INPUT2[4]
* INPUT1[9]	INPUT1[9]
* OUTPUT[10]	OUTPUT[10]
* INPUT1[10]	INPUT1[10]
* INPUT2[1]	INPUT2[1]
* OUTPUT[13]	OUTPUT[13]
* INPUT2[10]	INPUT2[10]
* OUTPUT[1]	OUTPUT[1]
* OUTPUT[7]	OUTPUT[7]
* INPUT2[13]	INPUT2[13]
* INPUT1[7]	INPUT1[7]
* INPUT1[8]	INPUT1[8]
* INPUT1[13]	INPUT1[13]
* INPUT1[1]	INPUT1[1]
* INPUT2[2]	INPUT2[2]
* OUTPUT[8]	OUTPUT[8]
* OUTPUT[2]	OUTPUT[2]
* INPUT1[2]	INPUT1[2]
* INPUT2[8]	INPUT2[8]
* INPUT2[7]	INPUT2[7]
* COUT	COUT
* VDD	VDD
* VSS	VSS
M0 N_VSS_M0_d N_CONTROL[0]_M0_g N_1_M0_s N_VSS_X30.M0_b NMOS L=1.4e-07 W=3.5e-07
M1 N_4_M1_d N_CONTROL[1]_M1_g N_VSS_M1_s N_VSS_X30.M0_b NMOS L=1.4e-07 W=3.5e-07
M2 N_5_M2_d N_CONTROL[1]_M2_g N_VSS_M0_d N_VSS_X30.M0_b NMOS L=1.4e-07 W=3.5e-07
M3 N_VSS_M3_d N_CONTROL[0]_M3_g N_4_M1_d N_VSS_X30.M0_b NMOS L=1.4e-07 W=3.5e-07
M4 N_VSS_M4_d N_1_M4_g N_5_M2_d N_VSS_X30.M0_b NMOS L=1.4e-07 W=3.5e-07
M5 6 N_45_M5_g N_VSS_M5_s N_VSS_X30.M0_b NMOS L=1.4e-07 W=7.7e-07
M6 N_7_M6_d N_CONTROL[0]_M6_g 6 N_VSS_X30.M0_b NMOS L=1.4e-07 W=7.7e-07
M7 8 N_CONTROL[1]_M7_g N_7_M6_d N_VSS_X30.M0_b NMOS L=1.4e-07 W=7.7e-07
M8 N_VSS_M8_d N_138_M8_g 8 N_VSS_X30.M0_b NMOS L=1.4e-07 W=7.7e-07
M9 N_COUT_M9_d N_7_M9_g N_VSS_M8_d N_VSS_X30.M0_b NMOS L=1.4e-07 W=3.5e-07
M10 10 N_137_M10_g N_VSS_M10_s N_VSS_X30.M0_b NMOS L=1.4e-07 W=1.19e-06
M11 11 N_CONTROL[1]_M11_g 10 N_VSS_X30.M0_b NMOS L=1.4e-07 W=1.19e-06
M12 N_12_M12_d N_CONTROL[0]_M12_g 11 N_VSS_X30.M0_b NMOS L=1.4e-07 W=1.19e-06
M13 13 N_149_M13_g N_12_M12_d N_VSS_X30.M0_b NMOS L=1.4e-07 W=7.7e-07
M14 N_VSS_M14_d N_INPUT1[0]_M14_g 13 N_VSS_X30.M0_b NMOS L=1.4e-07 W=7.7e-07
M15 N_VDD_M15_d N_CONTROL[0]_M15_g N_1_M15_s N_VDD_X44.M1_b PMOS L=1.4e-07
+ W=7.7e-07
M16 14 N_CONTROL[1]_M16_g N_4_M16_s N_VDD_X34.M1_b PMOS L=1.4e-07 W=1.19e-06
M17 15 N_CONTROL[1]_M17_g N_VDD_M15_d N_VDD_X44.M1_b PMOS L=1.4e-07 W=1.19e-06
M18 N_VDD_M18_d N_CONTROL[0]_M18_g 14 N_VDD_X34.M1_b PMOS L=1.4e-07 W=1.19e-06
M19 N_5_M19_d N_1_M19_g 15 N_VDD_X44.M1_b PMOS L=1.4e-07 W=1.19e-06
M20 N_16_M20_d N_45_M20_g N_VDD_M20_s N_VDD_X36.M1_b PMOS L=1.4e-07 W=1.19e-06
M21 N_7_M21_d N_CONTROL[1]_M21_g N_16_M20_d N_VDD_X36.M1_b PMOS L=1.4e-07
+ W=1.19e-06
M22 N_16_M22_d N_138_M22_g N_7_M21_d N_VDD_X36.M1_b PMOS L=1.4e-07 W=1.19e-06
M23 N_VDD_M23_d N_CONTROL[0]_M23_g N_16_M22_d N_VDD_X36.M1_b PMOS L=1.4e-07
+ W=1.19e-06
M24 N_COUT_M24_d N_7_M24_g N_VDD_M23_d N_VDD_X36.M1_b PMOS L=1.4e-07 W=7.7e-07
M25 N_17_M25_d N_137_M25_g N_VDD_M25_s N_VDD_X30.M1_b PMOS L=1.4e-07 W=1.19e-06
M26 N_VDD_M26_d N_CONTROL[1]_M26_g N_17_M25_d N_VDD_X30.M1_b PMOS L=1.4e-07
+ W=1.19e-06
M27 N_17_M27_d N_CONTROL[0]_M27_g N_VDD_M26_d N_VDD_X30.M1_b PMOS L=1.4e-07
+ W=1.19e-06
M28 N_12_M28_d N_149_M28_g N_17_M27_d N_VDD_X30.M1_b PMOS L=1.4e-07 W=1.19e-06
M29 N_17_M29_d N_INPUT1[0]_M29_g N_12_M28_d N_VDD_X30.M1_b PMOS L=1.4e-07
+ W=1.19e-06
mX30.M0 N_29_X30.M0_d N_INPUT2[8]_X30.M0_g N_VSS_X30.M0_s N_VSS_X30.M0_b NMOS
+ L=1.4e-07 W=3.5e-07
mX30.M1 N_29_X30.M1_d N_INPUT2[8]_X30.M1_g N_VDD_X30.M1_s N_VDD_X30.M1_b PMOS
+ L=1.4e-07 W=7.7e-07
mX31.M0 N_30_X31.M0_d N_INPUT2[2]_X31.M0_g N_VSS_X31.M0_s N_VSS_X30.M0_b NMOS
+ L=1.4e-07 W=3.5e-07
mX31.M1 N_30_X31.M1_d N_INPUT2[2]_X31.M1_g N_VDD_X31.M1_s N_VDD_X31.M1_b PMOS
+ L=1.4e-07 W=7.7e-07
mX32.M0 N_35_X32.M0_d N_INPUT1[8]_X32.M0_g N_VSS_X32.M0_s N_VSS_X30.M0_b NMOS
+ L=1.4e-07 W=3.5e-07
mX32.M1 N_35_X32.M1_d N_INPUT1[8]_X32.M1_g N_VDD_X32.M1_s N_VDD_X30.M1_b PMOS
+ L=1.4e-07 W=7.7e-07
mX33.M0 N_36_X33.M0_d N_INPUT1[2]_X33.M0_g N_VSS_X33.M0_s N_VSS_X30.M0_b NMOS
+ L=1.4e-07 W=3.5e-07
mX33.M1 N_36_X33.M1_d N_INPUT1[2]_X33.M1_g N_VDD_X33.M1_s N_VDD_X31.M1_b PMOS
+ L=1.4e-07 W=7.7e-07
mX34.M0 N_41_X34.M0_d N_INPUT2[7]_X34.M0_g N_VSS_X34.M0_s N_VSS_X30.M0_b NMOS
+ L=1.4e-07 W=3.5e-07
mX34.M1 N_41_X34.M1_d N_INPUT2[7]_X34.M1_g N_VDD_X34.M1_s N_VDD_X34.M1_b PMOS
+ L=1.4e-07 W=7.7e-07
mX35.M0 N_56_X35.M0_d N_INPUT2[13]_X35.M0_g N_VSS_X35.M0_s N_VSS_X30.M0_b NMOS
+ L=1.4e-07 W=3.5e-07
mX35.M1 N_56_X35.M1_d N_INPUT2[13]_X35.M1_g N_VDD_X35.M1_s N_VDD_X34.M1_b PMOS
+ L=1.4e-07 W=7.7e-07
mX36.M0 N_59_X36.M0_d N_INPUT1[13]_X36.M0_g N_VSS_X36.M0_s N_VSS_X30.M0_b NMOS
+ L=1.4e-07 W=3.5e-07
mX36.M1 N_59_X36.M1_d N_INPUT1[13]_X36.M1_g N_VDD_X36.M1_s N_VDD_X36.M1_b PMOS
+ L=1.4e-07 W=7.7e-07
mX37.M0 N_73_X37.M0_d N_INPUT2[10]_X37.M0_g N_VSS_X37.M0_s N_VSS_X30.M0_b NMOS
+ L=1.4e-07 W=3.5e-07
mX37.M1 N_73_X37.M1_d N_INPUT2[10]_X37.M1_g N_VDD_X37.M1_s N_VDD_X37.M1_b PMOS
+ L=1.4e-07 W=7.7e-07
mX38.M0 N_68_X38.M0_d N_INPUT1[1]_X38.M0_g N_VSS_X38.M0_s N_VSS_X30.M0_b NMOS
+ L=1.4e-07 W=3.5e-07
mX38.M1 N_68_X38.M1_d N_INPUT1[1]_X38.M1_g N_VDD_X38.M1_s N_VDD_X31.M1_b PMOS
+ L=1.4e-07 W=7.7e-07
mX39.M0 N_88_X39.M0_d N_INPUT1[9]_X39.M0_g N_VSS_X39.M0_s N_VSS_X30.M0_b NMOS
+ L=1.4e-07 W=3.5e-07
mX39.M1 N_88_X39.M1_d N_INPUT1[9]_X39.M1_g N_VDD_X39.M1_s N_VDD_X31.M1_b PMOS
+ L=1.4e-07 W=7.7e-07
mX40.M0 N_104_X40.M0_d N_INPUT2[4]_X40.M0_g N_VSS_X40.M0_s N_VSS_X30.M0_b NMOS
+ L=1.4e-07 W=3.5e-07
mX40.M1 N_104_X40.M1_d N_INPUT2[4]_X40.M1_g N_VDD_X40.M1_s N_VDD_X37.M1_b PMOS
+ L=1.4e-07 W=7.7e-07
mX41.M0 N_114_X41.M0_d N_INPUT2[3]_X41.M0_g N_VSS_X41.M0_s N_VSS_X30.M0_b NMOS
+ L=1.4e-07 W=3.5e-07
mX41.M1 N_114_X41.M1_d N_INPUT2[3]_X41.M1_g N_VDD_X41.M1_s N_VDD_X34.M1_b PMOS
+ L=1.4e-07 W=7.7e-07
mX42.M0 N_125_X42.M0_d N_CONTROL[0]_X42.M0_g N_VSS_X42.M0_s N_VSS_X30.M0_b NMOS
+ L=1.4e-07 W=3.5e-07
mX42.M1 N_125_X42.M1_d N_CONTROL[0]_X42.M1_g N_VDD_X42.M1_s N_VDD_X34.M1_b PMOS
+ L=1.4e-07 W=7.7e-07
mX43.M0 N_45_X43.M0_d N_CONTROL[1]_X43.M0_g N_VSS_X43.M0_s N_VSS_X30.M0_b NMOS
+ L=1.4e-07 W=3.5e-07
mX43.M1 N_45_X43.M1_d N_CONTROL[1]_X43.M1_g N_VDD_X43.M1_s N_VDD_X31.M1_b PMOS
+ L=1.4e-07 W=7.7e-07
mX44.M0 N_69_X44.M0_d N_CONTROL[1]_X44.M0_g N_VSS_X44.M0_s N_VSS_X30.M0_b NMOS
+ L=1.4e-07 W=3.5e-07
mX44.M1 N_69_X44.M1_d N_CONTROL[1]_X44.M1_g N_VDD_X44.M1_s N_VDD_X44.M1_b PMOS
+ L=1.4e-07 W=7.7e-07
mX45.M0 N_133_X45.M0_d N_INPUT2[0]_X45.M0_g N_VSS_X45.M0_s N_VSS_X30.M0_b NMOS
+ L=1.4e-07 W=3.5e-07
mX45.M1 N_133_X45.M1_d N_INPUT2[0]_X45.M1_g N_VDD_X45.M1_s N_VDD_X44.M1_b PMOS
+ L=1.4e-07 W=7.7e-07
mX46.M0 N_135_X46.M0_d N_INPUT2[12]_X46.M0_g N_VSS_X46.M0_s N_VSS_X30.M0_b NMOS
+ L=1.4e-07 W=3.5e-07
mX46.M1 N_135_X46.M1_d N_INPUT2[12]_X46.M1_g N_VDD_X46.M1_s N_VDD_X31.M1_b PMOS
+ L=1.4e-07 W=7.7e-07
mX47.M0 N_49_X47.M0_d N_154_X47.M0_g N_VSS_X47.M0_s N_VSS_X30.M0_b NMOS
+ L=1.4e-07 W=3.5e-07
mX47.M1 N_49_X47.M1_d N_154_X47.M1_g N_VDD_X47.M1_s N_VDD_X31.M1_b PMOS
+ L=1.4e-07 W=7.7e-07
mX48.M0 N_149_X48.M0_d N_131_X48.M0_g N_VSS_X48.M0_s N_VSS_X30.M0_b NMOS
+ L=1.4e-07 W=3.5e-07
mX48.M1 N_149_X48.M1_d N_131_X48.M1_g N_VDD_X48.M1_s N_VDD_X30.M1_b PMOS
+ L=1.4e-07 W=7.7e-07
mX49.M0 N_155_X49.M0_d N_154_X49.M0_g N_VSS_X49.M0_s N_VSS_X30.M0_b NMOS
+ L=1.4e-07 W=3.5e-07
mX49.M1 N_155_X49.M1_d N_154_X49.M1_g N_VDD_X49.M1_s N_VDD_X31.M1_b PMOS
+ L=1.4e-07 W=7.7e-07
mX50.M0 N_163_X50.M0_d N_INPUT1[15]_X50.M0_g N_VSS_X50.M0_s N_VSS_X30.M0_b NMOS
+ L=1.4e-07 W=3.5e-07
mX50.M1 N_163_X50.M1_d N_INPUT1[15]_X50.M1_g N_VDD_X50.M1_s N_VDD_X31.M1_b PMOS
+ L=1.4e-07 W=7.7e-07
mX51.M0 N_176_X51.M0_d N_INPUT2[5]_X51.M0_g N_VSS_X51.M0_s N_VSS_X30.M0_b NMOS
+ L=1.4e-07 W=3.5e-07
mX51.M1 N_176_X51.M1_d N_INPUT2[5]_X51.M1_g N_VDD_X51.M1_s N_VDD_X37.M1_b PMOS
+ L=1.4e-07 W=7.7e-07
mX52.M0 N_166_X52.M0_d N_INPUT2[15]_X52.M0_g N_VSS_X52.M0_s N_VSS_X30.M0_b NMOS
+ L=1.4e-07 W=3.5e-07
mX52.M1 N_166_X52.M1_d N_INPUT2[15]_X52.M1_g N_VDD_X52.M1_s N_VDD_X31.M1_b PMOS
+ L=1.4e-07 W=7.7e-07
mX53.M0 N_179_X53.M0_d N_INPUT2[14]_X53.M0_g N_VSS_X53.M0_s N_VSS_X30.M0_b NMOS
+ L=1.4e-07 W=3.5e-07
mX53.M1 N_179_X53.M1_d N_INPUT2[14]_X53.M1_g N_VDD_X53.M1_s N_VDD_X36.M1_b PMOS
+ L=1.4e-07 W=7.7e-07
mX54.M0 N_184_X54.M0_d N_INPUT1[6]_X54.M0_g N_VSS_X54.M0_s N_VSS_X30.M0_b NMOS
+ L=1.4e-07 W=3.5e-07
mX54.M1 N_184_X54.M1_d N_INPUT1[6]_X54.M1_g N_VDD_X54.M1_s N_VDD_X34.M1_b PMOS
+ L=1.4e-07 W=7.7e-07
mX55.M0 N_190_X55.M0_d N_INPUT1[11]_X55.M0_g N_VSS_X55.M0_s N_VSS_X30.M0_b NMOS
+ L=1.4e-07 W=3.5e-07
mX55.M1 N_190_X55.M1_d N_INPUT1[11]_X55.M1_g N_VDD_X55.M1_s N_VDD_X30.M1_b PMOS
+ L=1.4e-07 W=7.7e-07
mX56.M0 X56.7 N_INPUT1[7]_X56.M0_g N_X56.6_X56.M0_s N_VSS_X30.M0_b NMOS
+ L=1.4e-07 W=7.7e-07
mX56.M1 N_VSS_X56.M1_d N_31_X56.M1_g X56.7 N_VSS_X30.M0_b NMOS L=1.4e-07
+ W=7.7e-07
mX56.M2 N_33_X56.M2_d N_31_X56.M2_g N_X56.8_X56.M2_s N_VSS_X30.M0_b NMOS
+ L=1.4e-07 W=7.7e-07
mX56.M3 N_X56.8_X56.M3_d N_INPUT1[7]_X56.M3_g N_33_X56.M2_d N_VSS_X30.M0_b NMOS
+ L=1.4e-07 W=7.7e-07
mX56.M4 N_VSS_X56.M4_d N_X56.6_X56.M4_g N_X56.8_X56.M3_d N_VSS_X30.M0_b NMOS
+ L=1.4e-07 W=7.7e-07
mX56.M5 N_X56.6_X56.M5_d N_INPUT1[7]_X56.M5_g N_VDD_X56.M5_s N_VDD_X37.M1_b PMOS
+ L=1.4e-07 W=1.19e-06
mX56.M6 N_VDD_X56.M6_d N_31_X56.M6_g N_X56.6_X56.M5_d N_VDD_X37.M1_b PMOS
+ L=1.4e-07 W=1.19e-06
mX56.M7 X56.9 N_INPUT1[7]_X56.M7_g N_VDD_X56.M6_d N_VDD_X37.M1_b PMOS L=1.4e-07
+ W=2.24e-06
mX56.M8 N_33_X56.M8_d N_31_X56.M8_g X56.9 N_VDD_X37.M1_b PMOS L=1.4e-07
+ W=2.24e-06
mX56.M9 N_VDD_X56.M9_d N_X56.6_X56.M9_g N_33_X56.M8_d N_VDD_X37.M1_b PMOS
+ L=1.4e-07 W=1.19e-06
mX57.M0 X57.7 N_28_X57.M0_g N_X57.6_X57.M0_s N_VSS_X30.M0_b NMOS L=1.4e-07
+ W=7.7e-07
mX57.M1 N_VSS_X57.M1_d N_INPUT2[7]_X57.M1_g X57.7 N_VSS_X30.M0_b NMOS L=1.4e-07
+ W=7.7e-07
mX57.M2 N_31_X57.M2_d N_INPUT2[7]_X57.M2_g N_X57.8_X57.M2_s N_VSS_X30.M0_b NMOS
+ L=1.4e-07 W=7.7e-07
mX57.M3 N_X57.8_X57.M3_d N_28_X57.M3_g N_31_X57.M2_d N_VSS_X30.M0_b NMOS
+ L=1.4e-07 W=7.7e-07
mX57.M4 N_VSS_X57.M4_d N_X57.6_X57.M4_g N_X57.8_X57.M3_d N_VSS_X30.M0_b NMOS
+ L=1.4e-07 W=7.7e-07
mX57.M5 N_X57.6_X57.M5_d N_28_X57.M5_g N_VDD_X57.M5_s N_VDD_X34.M1_b PMOS
+ L=1.4e-07 W=1.19e-06
mX57.M6 N_VDD_X57.M6_d N_INPUT2[7]_X57.M6_g N_X57.6_X57.M5_d N_VDD_X34.M1_b PMOS
+ L=1.4e-07 W=1.19e-06
mX57.M7 X57.9 N_28_X57.M7_g N_VDD_X57.M6_d N_VDD_X34.M1_b PMOS L=1.4e-07
+ W=2.24e-06
mX57.M8 N_31_X57.M8_d N_INPUT2[7]_X57.M8_g X57.9 N_VDD_X34.M1_b PMOS L=1.4e-07
+ W=2.24e-06
mX57.M9 N_VDD_X57.M9_d N_X57.6_X57.M9_g N_31_X57.M8_d N_VDD_X34.M1_b PMOS
+ L=1.4e-07 W=1.19e-06
mX58.M0 X58.7 N_28_X58.M0_g N_X58.6_X58.M0_s N_VSS_X30.M0_b NMOS L=1.4e-07
+ W=7.7e-07
mX58.M1 N_VSS_X58.M1_d N_INPUT2[8]_X58.M1_g X58.7 N_VSS_X30.M0_b NMOS L=1.4e-07
+ W=7.7e-07
mX58.M2 N_40_X58.M2_d N_INPUT2[8]_X58.M2_g N_X58.8_X58.M2_s N_VSS_X30.M0_b NMOS
+ L=1.4e-07 W=7.7e-07
mX58.M3 N_X58.8_X58.M3_d N_28_X58.M3_g N_40_X58.M2_d N_VSS_X30.M0_b NMOS
+ L=1.4e-07 W=7.7e-07
mX58.M4 N_VSS_X58.M4_d N_X58.6_X58.M4_g N_X58.8_X58.M3_d N_VSS_X30.M0_b NMOS
+ L=1.4e-07 W=7.7e-07
mX58.M5 N_X58.6_X58.M5_d N_28_X58.M5_g N_VDD_X58.M5_s N_VDD_X36.M1_b PMOS
+ L=1.4e-07 W=1.19e-06
mX58.M6 N_VDD_X58.M6_d N_INPUT2[8]_X58.M6_g N_X58.6_X58.M5_d N_VDD_X36.M1_b PMOS
+ L=1.4e-07 W=1.19e-06
mX58.M7 X58.9 N_28_X58.M7_g N_VDD_X58.M6_d N_VDD_X36.M1_b PMOS L=1.4e-07
+ W=2.24e-06
mX58.M8 N_40_X58.M8_d N_INPUT2[8]_X58.M8_g X58.9 N_VDD_X36.M1_b PMOS L=1.4e-07
+ W=2.24e-06
mX58.M9 N_VDD_X58.M9_d N_X58.6_X58.M9_g N_40_X58.M8_d N_VDD_X36.M1_b PMOS
+ L=1.4e-07 W=1.19e-06
mX59.M0 X59.7 N_INPUT1[2]_X59.M0_g N_X59.6_X59.M0_s N_VSS_X30.M0_b NMOS
+ L=1.4e-07 W=7.7e-07
mX59.M1 N_VSS_X59.M1_d N_32_X59.M1_g X59.7 N_VSS_X30.M0_b NMOS L=1.4e-07
+ W=7.7e-07
mX59.M2 N_34_X59.M2_d N_32_X59.M2_g N_X59.8_X59.M2_s N_VSS_X30.M0_b NMOS
+ L=1.4e-07 W=7.7e-07
mX59.M3 N_X59.8_X59.M3_d N_INPUT1[2]_X59.M3_g N_34_X59.M2_d N_VSS_X30.M0_b NMOS
+ L=1.4e-07 W=7.7e-07
mX59.M4 N_VSS_X59.M4_d N_X59.6_X59.M4_g N_X59.8_X59.M3_d N_VSS_X30.M0_b NMOS
+ L=1.4e-07 W=7.7e-07
mX59.M5 N_X59.6_X59.M5_d N_INPUT1[2]_X59.M5_g N_VDD_X59.M5_s N_VDD_X44.M1_b PMOS
+ L=1.4e-07 W=1.19e-06
mX59.M6 N_VDD_X59.M6_d N_32_X59.M6_g N_X59.6_X59.M5_d N_VDD_X44.M1_b PMOS
+ L=1.4e-07 W=1.19e-06
mX59.M7 X59.9 N_INPUT1[2]_X59.M7_g N_VDD_X59.M6_d N_VDD_X44.M1_b PMOS L=1.4e-07
+ W=2.24e-06
mX59.M8 N_34_X59.M8_d N_32_X59.M8_g X59.9 N_VDD_X44.M1_b PMOS L=1.4e-07
+ W=2.24e-06
mX59.M9 N_VDD_X59.M9_d N_X59.6_X59.M9_g N_34_X59.M8_d N_VDD_X44.M1_b PMOS
+ L=1.4e-07 W=1.19e-06
mX60.M0 X60.7 N_28_X60.M0_g N_X60.6_X60.M0_s N_VSS_X30.M0_b NMOS L=1.4e-07
+ W=7.7e-07
mX60.M1 N_VSS_X60.M1_d N_INPUT2[13]_X60.M1_g X60.7 N_VSS_X30.M0_b NMOS L=1.4e-07
+ W=7.7e-07
mX60.M2 N_53_X60.M2_d N_INPUT2[13]_X60.M2_g N_X60.8_X60.M2_s N_VSS_X30.M0_b NMOS
+ L=1.4e-07 W=7.7e-07
mX60.M3 N_X60.8_X60.M3_d N_28_X60.M3_g N_53_X60.M2_d N_VSS_X30.M0_b NMOS
+ L=1.4e-07 W=7.7e-07
mX60.M4 N_VSS_X60.M4_d N_X60.6_X60.M4_g N_X60.8_X60.M3_d N_VSS_X30.M0_b NMOS
+ L=1.4e-07 W=7.7e-07
mX60.M5 N_X60.6_X60.M5_d N_28_X60.M5_g N_VDD_X60.M5_s N_VDD_X34.M1_b PMOS
+ L=1.4e-07 W=1.19e-06
mX60.M6 N_VDD_X60.M6_d N_INPUT2[13]_X60.M6_g N_X60.6_X60.M5_d N_VDD_X34.M1_b
+ PMOS L=1.4e-07 W=1.19e-06
mX60.M7 X60.9 N_28_X60.M7_g N_VDD_X60.M6_d N_VDD_X34.M1_b PMOS L=1.4e-07
+ W=2.24e-06
mX60.M8 N_53_X60.M8_d N_INPUT2[13]_X60.M8_g X60.9 N_VDD_X34.M1_b PMOS L=1.4e-07
+ W=2.24e-06
mX60.M9 N_VDD_X60.M9_d N_X60.6_X60.M9_g N_53_X60.M8_d N_VDD_X34.M1_b PMOS
+ L=1.4e-07 W=1.19e-06
mX61.M0 X61.7 N_INPUT1[8]_X61.M0_g N_X61.6_X61.M0_s N_VSS_X30.M0_b NMOS
+ L=1.4e-07 W=7.7e-07
mX61.M1 N_VSS_X61.M1_d N_40_X61.M1_g X61.7 N_VSS_X30.M0_b NMOS L=1.4e-07
+ W=7.7e-07
mX61.M2 N_63_X61.M2_d N_40_X61.M2_g N_X61.8_X61.M2_s N_VSS_X30.M0_b NMOS
+ L=1.4e-07 W=7.7e-07
mX61.M3 N_X61.8_X61.M3_d N_INPUT1[8]_X61.M3_g N_63_X61.M2_d N_VSS_X30.M0_b NMOS
+ L=1.4e-07 W=7.7e-07
mX61.M4 N_VSS_X61.M4_d N_X61.6_X61.M4_g N_X61.8_X61.M3_d N_VSS_X30.M0_b NMOS
+ L=1.4e-07 W=7.7e-07
mX61.M5 N_X61.6_X61.M5_d N_INPUT1[8]_X61.M5_g N_VDD_X61.M5_s N_VDD_X30.M1_b PMOS
+ L=1.4e-07 W=1.19e-06
mX61.M6 N_VDD_X61.M6_d N_40_X61.M6_g N_X61.6_X61.M5_d N_VDD_X30.M1_b PMOS
+ L=1.4e-07 W=1.19e-06
mX61.M7 X61.9 N_INPUT1[8]_X61.M7_g N_VDD_X61.M6_d N_VDD_X30.M1_b PMOS L=1.4e-07
+ W=2.24e-06
mX61.M8 N_63_X61.M8_d N_40_X61.M8_g X61.9 N_VDD_X30.M1_b PMOS L=1.4e-07
+ W=2.24e-06
mX61.M9 N_VDD_X61.M9_d N_X61.6_X61.M9_g N_63_X61.M8_d N_VDD_X30.M1_b PMOS
+ L=1.4e-07 W=1.19e-06
mX62.M0 X62.7 N_28_X62.M0_g N_X62.6_X62.M0_s N_VSS_X30.M0_b NMOS L=1.4e-07
+ W=7.7e-07
mX62.M1 N_VSS_X62.M1_d N_INPUT2[10]_X62.M1_g X62.7 N_VSS_X30.M0_b NMOS L=1.4e-07
+ W=7.7e-07
mX62.M2 N_64_X62.M2_d N_INPUT2[10]_X62.M2_g N_X62.8_X62.M2_s N_VSS_X30.M0_b NMOS
+ L=1.4e-07 W=7.7e-07
mX62.M3 N_X62.8_X62.M3_d N_28_X62.M3_g N_64_X62.M2_d N_VSS_X30.M0_b NMOS
+ L=1.4e-07 W=7.7e-07
mX62.M4 N_VSS_X62.M4_d N_X62.6_X62.M4_g N_X62.8_X62.M3_d N_VSS_X30.M0_b NMOS
+ L=1.4e-07 W=7.7e-07
mX62.M5 N_X62.6_X62.M5_d N_28_X62.M5_g N_VDD_X62.M5_s N_VDD_X34.M1_b PMOS
+ L=1.4e-07 W=1.19e-06
mX62.M6 N_VDD_X62.M6_d N_INPUT2[10]_X62.M6_g N_X62.6_X62.M5_d N_VDD_X34.M1_b
+ PMOS L=1.4e-07 W=1.19e-06
mX62.M7 X62.9 N_28_X62.M7_g N_VDD_X62.M6_d N_VDD_X34.M1_b PMOS L=1.4e-07
+ W=2.24e-06
mX62.M8 N_64_X62.M8_d N_INPUT2[10]_X62.M8_g X62.9 N_VDD_X34.M1_b PMOS L=1.4e-07
+ W=2.24e-06
mX62.M9 N_VDD_X62.M9_d N_X62.6_X62.M9_g N_64_X62.M8_d N_VDD_X34.M1_b PMOS
+ L=1.4e-07 W=1.19e-06
mX63.M0 X63.7 N_70_X63.M0_g N_X63.6_X63.M0_s N_VSS_X30.M0_b NMOS L=1.4e-07
+ W=7.7e-07
mX63.M1 N_VSS_X63.M1_d N_INPUT2[2]_X63.M1_g X63.7 N_VSS_X30.M0_b NMOS L=1.4e-07
+ W=7.7e-07
mX63.M2 N_32_X63.M2_d N_INPUT2[2]_X63.M2_g N_X63.8_X63.M2_s N_VSS_X30.M0_b NMOS
+ L=1.4e-07 W=7.7e-07
mX63.M3 N_X63.8_X63.M3_d N_70_X63.M3_g N_32_X63.M2_d N_VSS_X30.M0_b NMOS
+ L=1.4e-07 W=7.7e-07
mX63.M4 N_VSS_X63.M4_d N_X63.6_X63.M4_g N_X63.8_X63.M3_d N_VSS_X30.M0_b NMOS
+ L=1.4e-07 W=7.7e-07
mX63.M5 N_X63.6_X63.M5_d N_70_X63.M5_g N_VDD_X63.M5_s N_VDD_X44.M1_b PMOS
+ L=1.4e-07 W=1.19e-06
mX63.M6 N_VDD_X63.M6_d N_INPUT2[2]_X63.M6_g N_X63.6_X63.M5_d N_VDD_X44.M1_b PMOS
+ L=1.4e-07 W=1.19e-06
mX63.M7 X63.9 N_70_X63.M7_g N_VDD_X63.M6_d N_VDD_X44.M1_b PMOS L=1.4e-07
+ W=2.24e-06
mX63.M8 N_32_X63.M8_d N_INPUT2[2]_X63.M8_g X63.9 N_VDD_X44.M1_b PMOS L=1.4e-07
+ W=2.24e-06
mX63.M9 N_VDD_X63.M9_d N_X63.6_X63.M9_g N_32_X63.M8_d N_VDD_X44.M1_b PMOS
+ L=1.4e-07 W=1.19e-06
mX64.M0 X64.7 N_INPUT1[10]_X64.M0_g N_X64.6_X64.M0_s N_VSS_X30.M0_b NMOS
+ L=1.4e-07 W=7.7e-07
mX64.M1 N_VSS_X64.M1_d N_64_X64.M1_g X64.7 N_VSS_X30.M0_b NMOS L=1.4e-07
+ W=7.7e-07
mX64.M2 N_71_X64.M2_d N_64_X64.M2_g N_X64.8_X64.M2_s N_VSS_X30.M0_b NMOS
+ L=1.4e-07 W=7.7e-07
mX64.M3 N_X64.8_X64.M3_d N_INPUT1[10]_X64.M3_g N_71_X64.M2_d N_VSS_X30.M0_b NMOS
+ L=1.4e-07 W=7.7e-07
mX64.M4 N_VSS_X64.M4_d N_X64.6_X64.M4_g N_X64.8_X64.M3_d N_VSS_X30.M0_b NMOS
+ L=1.4e-07 W=7.7e-07
mX64.M5 N_X64.6_X64.M5_d N_INPUT1[10]_X64.M5_g N_VDD_X64.M5_s N_VDD_X34.M1_b
+ PMOS L=1.4e-07 W=1.19e-06
mX64.M6 N_VDD_X64.M6_d N_64_X64.M6_g N_X64.6_X64.M5_d N_VDD_X34.M1_b PMOS
+ L=1.4e-07 W=1.19e-06
mX64.M7 X64.9 N_INPUT1[10]_X64.M7_g N_VDD_X64.M6_d N_VDD_X34.M1_b PMOS L=1.4e-07
+ W=2.24e-06
mX64.M8 N_71_X64.M8_d N_64_X64.M8_g X64.9 N_VDD_X34.M1_b PMOS L=1.4e-07
+ W=2.24e-06
mX64.M9 N_VDD_X64.M9_d N_X64.6_X64.M9_g N_71_X64.M8_d N_VDD_X34.M1_b PMOS
+ L=1.4e-07 W=1.19e-06
mX65.M0 X65.7 N_70_X65.M0_g N_X65.6_X65.M0_s N_VSS_X30.M0_b NMOS L=1.4e-07
+ W=7.7e-07
mX65.M1 N_VSS_X65.M1_d N_INPUT2[1]_X65.M1_g X65.7 N_VSS_X30.M0_b NMOS L=1.4e-07
+ W=7.7e-07
mX65.M2 N_76_X65.M2_d N_INPUT2[1]_X65.M2_g N_X65.8_X65.M2_s N_VSS_X30.M0_b NMOS
+ L=1.4e-07 W=7.7e-07
mX65.M3 N_X65.8_X65.M3_d N_70_X65.M3_g N_76_X65.M2_d N_VSS_X30.M0_b NMOS
+ L=1.4e-07 W=7.7e-07
mX65.M4 N_VSS_X65.M4_d N_X65.6_X65.M4_g N_X65.8_X65.M3_d N_VSS_X30.M0_b NMOS
+ L=1.4e-07 W=7.7e-07
mX65.M5 N_X65.6_X65.M5_d N_70_X65.M5_g N_VDD_X65.M5_s N_VDD_X44.M1_b PMOS
+ L=1.4e-07 W=1.19e-06
mX65.M6 N_VDD_X65.M6_d N_INPUT2[1]_X65.M6_g N_X65.6_X65.M5_d N_VDD_X44.M1_b PMOS
+ L=1.4e-07 W=1.19e-06
mX65.M7 X65.9 N_70_X65.M7_g N_VDD_X65.M6_d N_VDD_X44.M1_b PMOS L=1.4e-07
+ W=2.24e-06
mX65.M8 N_76_X65.M8_d N_INPUT2[1]_X65.M8_g X65.9 N_VDD_X44.M1_b PMOS L=1.4e-07
+ W=2.24e-06
mX65.M9 N_VDD_X65.M9_d N_X65.6_X65.M9_g N_76_X65.M8_d N_VDD_X44.M1_b PMOS
+ L=1.4e-07 W=1.19e-06
mX66.M0 X66.7 N_INPUT1[13]_X66.M0_g N_X66.6_X66.M0_s N_VSS_X30.M0_b NMOS
+ L=1.4e-07 W=7.7e-07
mX66.M1 N_VSS_X66.M1_d N_53_X66.M1_g X66.7 N_VSS_X30.M0_b NMOS L=1.4e-07
+ W=7.7e-07
mX66.M2 N_78_X66.M2_d N_53_X66.M2_g N_X66.8_X66.M2_s N_VSS_X30.M0_b NMOS
+ L=1.4e-07 W=7.7e-07
mX66.M3 N_X66.8_X66.M3_d N_INPUT1[13]_X66.M3_g N_78_X66.M2_d N_VSS_X30.M0_b NMOS
+ L=1.4e-07 W=7.7e-07
mX66.M4 N_VSS_X66.M4_d N_X66.6_X66.M4_g N_X66.8_X66.M3_d N_VSS_X30.M0_b NMOS
+ L=1.4e-07 W=7.7e-07
mX66.M5 N_X66.6_X66.M5_d N_INPUT1[13]_X66.M5_g N_VDD_X66.M5_s N_VDD_X36.M1_b
+ PMOS L=1.4e-07 W=1.19e-06
mX66.M6 N_VDD_X66.M6_d N_53_X66.M6_g N_X66.6_X66.M5_d N_VDD_X36.M1_b PMOS
+ L=1.4e-07 W=1.19e-06
mX66.M7 X66.9 N_INPUT1[13]_X66.M7_g N_VDD_X66.M6_d N_VDD_X36.M1_b PMOS L=1.4e-07
+ W=2.24e-06
mX66.M8 N_78_X66.M8_d N_53_X66.M8_g X66.9 N_VDD_X36.M1_b PMOS L=1.4e-07
+ W=2.24e-06
mX66.M9 N_VDD_X66.M9_d N_X66.6_X66.M9_g N_78_X66.M8_d N_VDD_X36.M1_b PMOS
+ L=1.4e-07 W=1.19e-06
mX67.M0 X67.7 N_INPUT1[1]_X67.M0_g N_X67.6_X67.M0_s N_VSS_X30.M0_b NMOS
+ L=1.4e-07 W=7.7e-07
mX67.M1 N_VSS_X67.M1_d N_76_X67.M1_g X67.7 N_VSS_X30.M0_b NMOS L=1.4e-07
+ W=7.7e-07
mX67.M2 N_86_X67.M2_d N_76_X67.M2_g N_X67.8_X67.M2_s N_VSS_X30.M0_b NMOS
+ L=1.4e-07 W=7.7e-07
mX67.M3 N_X67.8_X67.M3_d N_INPUT1[1]_X67.M3_g N_86_X67.M2_d N_VSS_X30.M0_b NMOS
+ L=1.4e-07 W=7.7e-07
mX67.M4 N_VSS_X67.M4_d N_X67.6_X67.M4_g N_X67.8_X67.M3_d N_VSS_X30.M0_b NMOS
+ L=1.4e-07 W=7.7e-07
mX67.M5 N_X67.6_X67.M5_d N_INPUT1[1]_X67.M5_g N_VDD_X67.M5_s N_VDD_X44.M1_b PMOS
+ L=1.4e-07 W=1.19e-06
mX67.M6 N_VDD_X67.M6_d N_76_X67.M6_g N_X67.6_X67.M5_d N_VDD_X44.M1_b PMOS
+ L=1.4e-07 W=1.19e-06
mX67.M7 X67.9 N_INPUT1[1]_X67.M7_g N_VDD_X67.M6_d N_VDD_X44.M1_b PMOS L=1.4e-07
+ W=2.24e-06
mX67.M8 N_86_X67.M8_d N_76_X67.M8_g X67.9 N_VDD_X44.M1_b PMOS L=1.4e-07
+ W=2.24e-06
mX67.M9 N_VDD_X67.M9_d N_X67.6_X67.M9_g N_86_X67.M8_d N_VDD_X44.M1_b PMOS
+ L=1.4e-07 W=1.19e-06
mX68.M0 X68.7 N_70_X68.M0_g N_X68.6_X68.M0_s N_VSS_X30.M0_b NMOS L=1.4e-07
+ W=7.7e-07
mX68.M1 N_VSS_X68.M1_d N_INPUT2[4]_X68.M1_g X68.7 N_VSS_X30.M0_b NMOS L=1.4e-07
+ W=7.7e-07
mX68.M2 N_102_X68.M2_d N_INPUT2[4]_X68.M2_g N_X68.8_X68.M2_s N_VSS_X30.M0_b NMOS
+ L=1.4e-07 W=7.7e-07
mX68.M3 N_X68.8_X68.M3_d N_70_X68.M3_g N_102_X68.M2_d N_VSS_X30.M0_b NMOS
+ L=1.4e-07 W=7.7e-07
mX68.M4 N_VSS_X68.M4_d N_X68.6_X68.M4_g N_X68.8_X68.M3_d N_VSS_X30.M0_b NMOS
+ L=1.4e-07 W=7.7e-07
mX68.M5 N_X68.6_X68.M5_d N_70_X68.M5_g N_VDD_X68.M5_s N_VDD_X37.M1_b PMOS
+ L=1.4e-07 W=1.19e-06
mX68.M6 N_VDD_X68.M6_d N_INPUT2[4]_X68.M6_g N_X68.6_X68.M5_d N_VDD_X37.M1_b PMOS
+ L=1.4e-07 W=1.19e-06
mX68.M7 X68.9 N_70_X68.M7_g N_VDD_X68.M6_d N_VDD_X37.M1_b PMOS L=1.4e-07
+ W=2.24e-06
mX68.M8 N_102_X68.M8_d N_INPUT2[4]_X68.M8_g X68.9 N_VDD_X37.M1_b PMOS L=1.4e-07
+ W=2.24e-06
mX68.M9 N_VDD_X68.M9_d N_X68.6_X68.M9_g N_102_X68.M8_d N_VDD_X37.M1_b PMOS
+ L=1.4e-07 W=1.19e-06
mX69.M0 X69.7 N_70_X69.M0_g N_X69.6_X69.M0_s N_VSS_X30.M0_b NMOS L=1.4e-07
+ W=7.7e-07
mX69.M1 N_VSS_X69.M1_d N_INPUT2[3]_X69.M1_g X69.7 N_VSS_X30.M0_b NMOS L=1.4e-07
+ W=7.7e-07
mX69.M2 N_99_X69.M2_d N_INPUT2[3]_X69.M2_g N_X69.8_X69.M2_s N_VSS_X30.M0_b NMOS
+ L=1.4e-07 W=7.7e-07
mX69.M3 N_X69.8_X69.M3_d N_70_X69.M3_g N_99_X69.M2_d N_VSS_X30.M0_b NMOS
+ L=1.4e-07 W=7.7e-07
mX69.M4 N_VSS_X69.M4_d N_X69.6_X69.M4_g N_X69.8_X69.M3_d N_VSS_X30.M0_b NMOS
+ L=1.4e-07 W=7.7e-07
mX69.M5 N_X69.6_X69.M5_d N_70_X69.M5_g N_VDD_X69.M5_s N_VDD_X34.M1_b PMOS
+ L=1.4e-07 W=1.19e-06
mX69.M6 N_VDD_X69.M6_d N_INPUT2[3]_X69.M6_g N_X69.6_X69.M5_d N_VDD_X34.M1_b PMOS
+ L=1.4e-07 W=1.19e-06
mX69.M7 X69.9 N_70_X69.M7_g N_VDD_X69.M6_d N_VDD_X34.M1_b PMOS L=1.4e-07
+ W=2.24e-06
mX69.M8 N_99_X69.M8_d N_INPUT2[3]_X69.M8_g X69.9 N_VDD_X34.M1_b PMOS L=1.4e-07
+ W=2.24e-06
mX69.M9 N_VDD_X69.M9_d N_X69.6_X69.M9_g N_99_X69.M8_d N_VDD_X34.M1_b PMOS
+ L=1.4e-07 W=1.19e-06
mX70.M0 X70.7 N_INPUT1[9]_X70.M0_g N_X70.6_X70.M0_s N_VSS_X30.M0_b NMOS
+ L=1.4e-07 W=7.7e-07
mX70.M1 N_VSS_X70.M1_d N_98_X70.M1_g X70.7 N_VSS_X30.M0_b NMOS L=1.4e-07
+ W=7.7e-07
mX70.M2 N_87_X70.M2_d N_98_X70.M2_g N_X70.8_X70.M2_s N_VSS_X30.M0_b NMOS
+ L=1.4e-07 W=7.7e-07
mX70.M3 N_X70.8_X70.M3_d N_INPUT1[9]_X70.M3_g N_87_X70.M2_d N_VSS_X30.M0_b NMOS
+ L=1.4e-07 W=7.7e-07
mX70.M4 N_VSS_X70.M4_d N_X70.6_X70.M4_g N_X70.8_X70.M3_d N_VSS_X30.M0_b NMOS
+ L=1.4e-07 W=7.7e-07
mX70.M5 N_X70.6_X70.M5_d N_INPUT1[9]_X70.M5_g N_VDD_X70.M5_s N_VDD_X30.M1_b PMOS
+ L=1.4e-07 W=1.19e-06
mX70.M6 N_VDD_X70.M6_d N_98_X70.M6_g N_X70.6_X70.M5_d N_VDD_X30.M1_b PMOS
+ L=1.4e-07 W=1.19e-06
mX70.M7 X70.9 N_INPUT1[9]_X70.M7_g N_VDD_X70.M6_d N_VDD_X30.M1_b PMOS L=1.4e-07
+ W=2.24e-06
mX70.M8 N_87_X70.M8_d N_98_X70.M8_g X70.9 N_VDD_X30.M1_b PMOS L=1.4e-07
+ W=2.24e-06
mX70.M9 N_VDD_X70.M9_d N_X70.6_X70.M9_g N_87_X70.M8_d N_VDD_X30.M1_b PMOS
+ L=1.4e-07 W=1.19e-06
mX71.M0 X71.7 N_INPUT1[3]_X71.M0_g N_X71.6_X71.M0_s N_VSS_X30.M0_b NMOS
+ L=1.4e-07 W=7.7e-07
mX71.M1 N_VSS_X71.M1_d N_99_X71.M1_g X71.7 N_VSS_X30.M0_b NMOS L=1.4e-07
+ W=7.7e-07
mX71.M2 N_92_X71.M2_d N_99_X71.M2_g N_X71.8_X71.M2_s N_VSS_X30.M0_b NMOS
+ L=1.4e-07 W=7.7e-07
mX71.M3 N_X71.8_X71.M3_d N_INPUT1[3]_X71.M3_g N_92_X71.M2_d N_VSS_X30.M0_b NMOS
+ L=1.4e-07 W=7.7e-07
mX71.M4 N_VSS_X71.M4_d N_X71.6_X71.M4_g N_X71.8_X71.M3_d N_VSS_X30.M0_b NMOS
+ L=1.4e-07 W=7.7e-07
mX71.M5 N_X71.6_X71.M5_d N_INPUT1[3]_X71.M5_g N_VDD_X71.M5_s N_VDD_X36.M1_b PMOS
+ L=1.4e-07 W=1.19e-06
mX71.M6 N_VDD_X71.M6_d N_99_X71.M6_g N_X71.6_X71.M5_d N_VDD_X36.M1_b PMOS
+ L=1.4e-07 W=1.19e-06
mX71.M7 X71.9 N_INPUT1[3]_X71.M7_g N_VDD_X71.M6_d N_VDD_X36.M1_b PMOS L=1.4e-07
+ W=2.24e-06
mX71.M8 N_92_X71.M8_d N_99_X71.M8_g X71.9 N_VDD_X36.M1_b PMOS L=1.4e-07
+ W=2.24e-06
mX71.M9 N_VDD_X71.M9_d N_X71.6_X71.M9_g N_92_X71.M8_d N_VDD_X36.M1_b PMOS
+ L=1.4e-07 W=1.19e-06
mX72.M0 X72.7 N_28_X72.M0_g N_X72.6_X72.M0_s N_VSS_X30.M0_b NMOS L=1.4e-07
+ W=7.7e-07
mX72.M1 N_VSS_X72.M1_d N_INPUT2[9]_X72.M1_g X72.7 N_VSS_X30.M0_b NMOS L=1.4e-07
+ W=7.7e-07
mX72.M2 N_98_X72.M2_d N_INPUT2[9]_X72.M2_g N_X72.8_X72.M2_s N_VSS_X30.M0_b NMOS
+ L=1.4e-07 W=7.7e-07
mX72.M3 N_X72.8_X72.M3_d N_28_X72.M3_g N_98_X72.M2_d N_VSS_X30.M0_b NMOS
+ L=1.4e-07 W=7.7e-07
mX72.M4 N_VSS_X72.M4_d N_X72.6_X72.M4_g N_X72.8_X72.M3_d N_VSS_X30.M0_b NMOS
+ L=1.4e-07 W=7.7e-07
mX72.M5 N_X72.6_X72.M5_d N_28_X72.M5_g N_VDD_X72.M5_s N_VDD_X30.M1_b PMOS
+ L=1.4e-07 W=1.19e-06
mX72.M6 N_VDD_X72.M6_d N_INPUT2[9]_X72.M6_g N_X72.6_X72.M5_d N_VDD_X30.M1_b PMOS
+ L=1.4e-07 W=1.19e-06
mX72.M7 X72.9 N_28_X72.M7_g N_VDD_X72.M6_d N_VDD_X30.M1_b PMOS L=1.4e-07
+ W=2.24e-06
mX72.M8 N_98_X72.M8_d N_INPUT2[9]_X72.M8_g X72.9 N_VDD_X30.M1_b PMOS L=1.4e-07
+ W=2.24e-06
mX72.M9 N_VDD_X72.M9_d N_X72.6_X72.M9_g N_98_X72.M8_d N_VDD_X30.M1_b PMOS
+ L=1.4e-07 W=1.19e-06
mX73.M0 X73.7 N_INPUT1[12]_X73.M0_g N_X73.6_X73.M0_s N_VSS_X30.M0_b NMOS
+ L=1.4e-07 W=7.7e-07
mX73.M1 N_VSS_X73.M1_d N_108_X73.M1_g X73.7 N_VSS_X30.M0_b NMOS L=1.4e-07
+ W=7.7e-07
mX73.M2 N_103_X73.M2_d N_108_X73.M2_g N_X73.8_X73.M2_s N_VSS_X30.M0_b NMOS
+ L=1.4e-07 W=7.7e-07
mX73.M3 N_X73.8_X73.M3_d N_INPUT1[12]_X73.M3_g N_103_X73.M2_d N_VSS_X30.M0_b
+ NMOS L=1.4e-07 W=7.7e-07
mX73.M4 N_VSS_X73.M4_d N_X73.6_X73.M4_g N_X73.8_X73.M3_d N_VSS_X30.M0_b NMOS
+ L=1.4e-07 W=7.7e-07
mX73.M5 N_X73.6_X73.M5_d N_INPUT1[12]_X73.M5_g N_VDD_X73.M5_s N_VDD_X31.M1_b
+ PMOS L=1.4e-07 W=1.19e-06
mX73.M6 N_VDD_X73.M6_d N_108_X73.M6_g N_X73.6_X73.M5_d N_VDD_X31.M1_b PMOS
+ L=1.4e-07 W=1.19e-06
mX73.M7 X73.9 N_INPUT1[12]_X73.M7_g N_VDD_X73.M6_d N_VDD_X31.M1_b PMOS L=1.4e-07
+ W=2.24e-06
mX73.M8 N_103_X73.M8_d N_108_X73.M8_g X73.9 N_VDD_X31.M1_b PMOS L=1.4e-07
+ W=2.24e-06
mX73.M9 N_VDD_X73.M9_d N_X73.6_X73.M9_g N_103_X73.M8_d N_VDD_X31.M1_b PMOS
+ L=1.4e-07 W=1.19e-06
mX74.M0 X74.7 N_INPUT1[4]_X74.M0_g N_X74.6_X74.M0_s N_VSS_X30.M0_b NMOS
+ L=1.4e-07 W=7.7e-07
mX74.M1 N_VSS_X74.M1_d N_102_X74.M1_g X74.7 N_VSS_X30.M0_b NMOS L=1.4e-07
+ W=7.7e-07
mX74.M2 N_109_X74.M2_d N_102_X74.M2_g N_X74.8_X74.M2_s N_VSS_X30.M0_b NMOS
+ L=1.4e-07 W=7.7e-07
mX74.M3 N_X74.8_X74.M3_d N_INPUT1[4]_X74.M3_g N_109_X74.M2_d N_VSS_X30.M0_b NMOS
+ L=1.4e-07 W=7.7e-07
mX74.M4 N_VSS_X74.M4_d N_X74.6_X74.M4_g N_X74.8_X74.M3_d N_VSS_X30.M0_b NMOS
+ L=1.4e-07 W=7.7e-07
mX74.M5 N_X74.6_X74.M5_d N_INPUT1[4]_X74.M5_g N_VDD_X74.M5_s N_VDD_X37.M1_b PMOS
+ L=1.4e-07 W=1.19e-06
mX74.M6 N_VDD_X74.M6_d N_102_X74.M6_g N_X74.6_X74.M5_d N_VDD_X37.M1_b PMOS
+ L=1.4e-07 W=1.19e-06
mX74.M7 X74.9 N_INPUT1[4]_X74.M7_g N_VDD_X74.M6_d N_VDD_X37.M1_b PMOS L=1.4e-07
+ W=2.24e-06
mX74.M8 N_109_X74.M8_d N_102_X74.M8_g X74.9 N_VDD_X37.M1_b PMOS L=1.4e-07
+ W=2.24e-06
mX74.M9 N_VDD_X74.M9_d N_X74.6_X74.M9_g N_109_X74.M8_d N_VDD_X37.M1_b PMOS
+ L=1.4e-07 W=1.19e-06
mX75.M0 X75.7 N_28_X75.M0_g N_X75.6_X75.M0_s N_VSS_X30.M0_b NMOS L=1.4e-07
+ W=7.7e-07
mX75.M1 N_VSS_X75.M1_d N_INPUT2[12]_X75.M1_g X75.7 N_VSS_X30.M0_b NMOS L=1.4e-07
+ W=7.7e-07
mX75.M2 N_108_X75.M2_d N_INPUT2[12]_X75.M2_g N_X75.8_X75.M2_s N_VSS_X30.M0_b
+ NMOS L=1.4e-07 W=7.7e-07
mX75.M3 N_X75.8_X75.M3_d N_28_X75.M3_g N_108_X75.M2_d N_VSS_X30.M0_b NMOS
+ L=1.4e-07 W=7.7e-07
mX75.M4 N_VSS_X75.M4_d N_X75.6_X75.M4_g N_X75.8_X75.M3_d N_VSS_X30.M0_b NMOS
+ L=1.4e-07 W=7.7e-07
mX75.M5 N_X75.6_X75.M5_d N_28_X75.M5_g N_VDD_X75.M5_s N_VDD_X31.M1_b PMOS
+ L=1.4e-07 W=1.19e-06
mX75.M6 N_VDD_X75.M6_d N_INPUT2[12]_X75.M6_g N_X75.6_X75.M5_d N_VDD_X31.M1_b
+ PMOS L=1.4e-07 W=1.19e-06
mX75.M7 X75.9 N_28_X75.M7_g N_VDD_X75.M6_d N_VDD_X31.M1_b PMOS L=1.4e-07
+ W=2.24e-06
mX75.M8 N_108_X75.M8_d N_INPUT2[12]_X75.M8_g X75.9 N_VDD_X31.M1_b PMOS L=1.4e-07
+ W=2.24e-06
mX75.M9 N_VDD_X75.M9_d N_X75.6_X75.M9_g N_108_X75.M8_d N_VDD_X31.M1_b PMOS
+ L=1.4e-07 W=1.19e-06
mX76.M0 X76.7 N_INPUT1[11]_X76.M0_g N_X76.6_X76.M0_s N_VSS_X30.M0_b NMOS
+ L=1.4e-07 W=7.7e-07
mX76.M1 N_VSS_X76.M1_d N_113_X76.M1_g X76.7 N_VSS_X30.M0_b NMOS L=1.4e-07
+ W=7.7e-07
mX76.M2 N_112_X76.M2_d N_113_X76.M2_g N_X76.8_X76.M2_s N_VSS_X30.M0_b NMOS
+ L=1.4e-07 W=7.7e-07
mX76.M3 N_X76.8_X76.M3_d N_INPUT1[11]_X76.M3_g N_112_X76.M2_d N_VSS_X30.M0_b
+ NMOS L=1.4e-07 W=7.7e-07
mX76.M4 N_VSS_X76.M4_d N_X76.6_X76.M4_g N_X76.8_X76.M3_d N_VSS_X30.M0_b NMOS
+ L=1.4e-07 W=7.7e-07
mX76.M5 N_X76.6_X76.M5_d N_INPUT1[11]_X76.M5_g N_VDD_X76.M5_s N_VDD_X44.M1_b
+ PMOS L=1.4e-07 W=1.19e-06
mX76.M6 N_VDD_X76.M6_d N_113_X76.M6_g N_X76.6_X76.M5_d N_VDD_X44.M1_b PMOS
+ L=1.4e-07 W=1.19e-06
mX76.M7 X76.9 N_INPUT1[11]_X76.M7_g N_VDD_X76.M6_d N_VDD_X44.M1_b PMOS L=1.4e-07
+ W=2.24e-06
mX76.M8 N_112_X76.M8_d N_113_X76.M8_g X76.9 N_VDD_X44.M1_b PMOS L=1.4e-07
+ W=2.24e-06
mX76.M9 N_VDD_X76.M9_d N_X76.6_X76.M9_g N_112_X76.M8_d N_VDD_X44.M1_b PMOS
+ L=1.4e-07 W=1.19e-06
mX77.M0 X77.7 N_70_X77.M0_g N_X77.6_X77.M0_s N_VSS_X30.M0_b NMOS L=1.4e-07
+ W=7.7e-07
mX77.M1 N_VSS_X77.M1_d N_INPUT2[0]_X77.M1_g X77.7 N_VSS_X30.M0_b NMOS L=1.4e-07
+ W=7.7e-07
mX77.M2 N_131_X77.M2_d N_INPUT2[0]_X77.M2_g N_X77.8_X77.M2_s N_VSS_X30.M0_b NMOS
+ L=1.4e-07 W=7.7e-07
mX77.M3 N_X77.8_X77.M3_d N_70_X77.M3_g N_131_X77.M2_d N_VSS_X30.M0_b NMOS
+ L=1.4e-07 W=7.7e-07
mX77.M4 N_VSS_X77.M4_d N_X77.6_X77.M4_g N_X77.8_X77.M3_d N_VSS_X30.M0_b NMOS
+ L=1.4e-07 W=7.7e-07