* SPICE NETLIST
***************************************

*.CALIBRE ABORT_INFO SOFTCHK
*.CALIBRE ABORT_INFO SUPPLY_ERROR
.SUBCKT mimcap_g13 plus minus
.ENDS
***************************************
.SUBCKT spiral_inductor_lvs pos neg
.ENDS
***************************************
.SUBCKT nor02ii
** N=12 EP=0 IP=0 FDC=0
*.SEEDPROM
.ENDS
***************************************
.SUBCKT xnor2
** N=7 EP=0 IP=0 FDC=0
*.SEEDPROM
.ENDS
***************************************
.SUBCKT mux21
** N=11 EP=0 IP=0 FDC=0
*.SEEDPROM
.ENDS
***************************************
.SUBCKT ao22 VSS 2 VDD Y 11
** N=17 EP=5 IP=0 FDC=2
*.SEEDPROM
M0 Y 11 VSS 2 nmos L=1.4e-07 W=3.5e-07 $X=2940 $Y=1610 $D=19
M1 Y 11 VDD 2 pmos L=1.4e-07 W=7.7e-07 $X=3080 $Y=6020 $D=25
.ENDS
***************************************
.SUBCKT xor2 5 VSS 8 10
** N=16 EP=4 IP=0 FDC=1
*.SEEDPROM
M0 10 8 VSS 5 nmos L=1.4e-07 W=3.5e-07 $X=4025 $Y=1330 $D=19
.ENDS
***************************************
.SUBCKT dff 5 9 13 14 24 25
** N=34 EP=6 IP=0 FDC=2
*.SEEDPROM
M0 14 9 13 5 nmos L=1.4e-07 W=7.7e-07 $X=8715 $Y=1330 $D=19
M1 25 9 24 5 pmos L=1.4e-07 W=1.54e-06 $X=8715 $Y=5530 $D=25
.ENDS
***************************************
.SUBCKT dffs VSS VDD 5 10 11 12 13 14 15 16 18 19 21 22 35 37
** N=48 EP=16 IP=0 FDC=10
*.SEEDPROM
M0 11 10 VSS 5 nmos L=1.4e-07 W=7.7e-07 $X=4445 $Y=2310 $D=19
M1 15 13 14 5 nmos L=1.4e-07 W=7.7e-07 $X=6195 $Y=2310 $D=19
M2 47 12 18 5 nmos L=1.4e-07 W=1.19e-06 $X=8295 $Y=1680 $D=19
M3 VSS 16 47 5 nmos L=1.4e-07 W=1.19e-06 $X=8715 $Y=1680 $D=19
M4 19 22 VSS 5 nmos L=1.4e-07 W=3.5e-07 $X=9310 $Y=2520 $D=19
M5 22 18 21 5 nmos L=1.4e-07 W=3.5e-07 $X=10465 $Y=1330 $D=19
M6 48 12 18 5 pmos L=1.4e-07 W=2.24e-06 $X=8295 $Y=4830 $D=25
M7 VDD 13 48 5 pmos L=1.4e-07 W=2.24e-06 $X=8715 $Y=4830 $D=25
M8 35 22 VDD 5 pmos L=1.4e-07 W=3.5e-07 $X=9310 $Y=5530 $D=25
M9 22 18 37 5 pmos L=1.4e-07 W=3.5e-07 $X=10430 $Y=5530 $D=25
.ENDS
***************************************
.SUBCKT ICV_1 3 4 5 8 10 11 12 14 15 16 17 18 19 20 21 22 23 24 27 29
+ 30 31 32 33 35 36 37 39 40 41 42 43 47 48
** N=48 EP=34 IP=57 FDC=29
*.SEEDPROM
M0 5 5 4 5 nmos L=1.4e-07 W=3.5e-07 $X=850 $Y=1610 $D=19
M1 5 3 47 5 nmos L=1.4e-07 W=7.7e-07 $X=2845 $Y=1190 $D=19
M2 10 8 5 5 nmos L=1.4e-07 W=7.7e-07 $X=3405 $Y=1190 $D=19
M3 39 17 5 5 nmos L=1.4e-07 W=1.19e-06 $X=5215 $Y=1470 $D=19
M4 33 11 12 5 nmos L=1.4e-07 W=1.19e-06 $X=5635 $Y=1470 $D=19
M5 5 43 14 5 nmos L=1.4e-07 W=3.5e-07 $X=6650 $Y=2310 $D=19
M6 48 33 5 5 nmos L=1.4e-07 W=7.7e-07 $X=7245 $Y=1890 $D=19
M7 18 5 21 5 nmos L=1.4e-07 W=3.5e-07 $X=14140 $Y=2520 $D=19
M8 24 23 5 5 nmos L=1.4e-07 W=7.7e-07 $X=16625 $Y=1330 $D=19
M9 5 5 3 5 pmos L=1.4e-07 W=7.7e-07 $X=850 $Y=5670 $D=25
M10 27 5 5 5 pmos L=1.4e-07 W=1.54e-06 $X=1445 $Y=5670 $D=25
M11 5 3 29 5 pmos L=1.4e-07 W=1.54e-06 $X=2845 $Y=5670 $D=25
M12 30 8 5 5 pmos L=1.4e-07 W=1.54e-06 $X=3405 $Y=5670 $D=25
M13 31 43 5 5 pmos L=1.4e-07 W=2.24e-06 $X=5215 $Y=4830 $D=25
M14 33 11 32 5 pmos L=1.4e-07 W=2.24e-06 $X=5635 $Y=4830 $D=25
M15 5 17 35 5 pmos L=1.4e-07 W=3.5e-07 $X=6650 $Y=6335 $D=25
M16 15 33 5 5 pmos L=1.4e-07 W=1.05e-06 $X=7245 $Y=5635 $D=25
M17 42 17 36 5 pmos L=1.4e-07 W=1.54e-06 $X=10605 $Y=5180 $D=25
M18 5 5 18 5 pmos L=1.4e-07 W=3.5e-07 $X=14280 $Y=5530 $D=25
X20 5 5 5 15 16 16 17 40 41 43 19 20 5 22 37 5 dffs $T=4410 0 0 0 $X=4410 $Y=0
.ENDS
***************************************
.SUBCKT ICV_2 1 2 3 4 5 6 7 8 9 10 12 13 14 15 17 18 19 23 24 25
+ 28 30 35
** N=35 EP=23 IP=57 FDC=32
*.SEEDPROM
M0 1 1 12 1 nmos L=1.4e-07 W=3.5e-07 $X=850 $Y=1610 $D=19
M1 14 1 13 1 nmos L=1.4e-07 W=7.7e-07 $X=1445 $Y=1190 $D=19
M2 1 12 17 1 nmos L=1.4e-07 W=7.7e-07 $X=2845 $Y=1190 $D=19
M3 18 15 1 1 nmos L=1.4e-07 W=7.7e-07 $X=3405 $Y=1190 $D=19
M4 29 5 1 1 nmos L=1.4e-07 W=1.19e-06 $X=-12425 $Y=1470 $D=19
M5 2 28 29 1 nmos L=1.4e-07 W=1.19e-06 $X=-12005 $Y=1470 $D=19
M6 1 6 30 1 nmos L=1.4e-07 W=3.5e-07 $X=-10990 $Y=2310 $D=19
M7 4 1 3 1 nmos L=1.4e-07 W=7.7e-07 $X=-9975 $Y=1890 $D=19
M8 1 1 5 1 nmos L=1.4e-07 W=7.7e-07 $X=-7595 $Y=2310 $D=19
M9 7 5 32 1 nmos L=1.4e-07 W=3.5e-07 $X=-5530 $Y=2520 $D=19
M10 32 1 33 1 nmos L=1.4e-07 W=3.5e-07 $X=-3500 $Y=2520 $D=19
M11 10 9 1 1 nmos L=1.4e-07 W=7.7e-07 $X=-1015 $Y=1330 $D=19
M12 24 1 23 1 pmos L=1.4e-07 W=1.54e-06 $X=1445 $Y=5670 $D=25
M13 1 12 25 1 pmos L=1.4e-07 W=1.54e-06 $X=2845 $Y=5670 $D=25
M14 18 15 1 1 pmos L=1.4e-07 W=1.54e-06 $X=3405 $Y=5670 $D=25
M15 34 6 1 1 pmos L=1.4e-07 W=2.24e-06 $X=-12425 $Y=4830 $D=25
M16 2 28 34 1 pmos L=1.4e-07 W=2.24e-06 $X=-12005 $Y=4830 $D=25
M17 1 5 35 1 pmos L=1.4e-07 W=3.5e-07 $X=-10990 $Y=6335 $D=25
M18 31 4 19 1 pmos L=1.4e-07 W=1.54e-06 $X=-9240 $Y=5145 $D=25
M19 1 1 5 1 pmos L=1.4e-07 W=1.54e-06 $X=-7595 $Y=5180 $D=25
M20 7 6 32 1 pmos L=1.4e-07 W=3.5e-07 $X=-5530 $Y=4830 $D=25
M21 1 1 32 1 pmos L=1.4e-07 W=3.5e-07 $X=-3360 $Y=5530 $D=25
X23 1 1 1 4 31 31 5 1 6 6 7 33 1 8 32 1 dffs $T=-13230 0 0 0 $X=-13230 $Y=0
.ENDS
***************************************
.SUBCKT ICV_3 2 3 5 6 7 8 9 13 16 17 24 25 26 27 31 33 37 38 39 40
** N=40 EP=20 IP=18 FDC=11
*.SEEDPROM
M0 3 38 5 3 nmos L=1.4e-07 W=7.7e-07 $X=1225 $Y=1610 $D=19
M1 7 38 6 3 nmos L=1.4e-07 W=7.7e-07 $X=2345 $Y=1610 $D=19
M2 6 37 8 3 nmos L=1.4e-07 W=7.7e-07 $X=2905 $Y=1610 $D=19
M3 9 2 6 3 nmos L=1.4e-07 W=7.7e-07 $X=3465 $Y=1610 $D=19
M4 3 3 13 3 nmos L=1.4e-07 W=3.5e-07 $X=5750 $Y=1610 $D=19
M5 17 40 16 3 nmos L=1.4e-07 W=7.7e-07 $X=7325 $Y=1190 $D=19
M6 2 37 3 3 pmos L=1.4e-07 W=1.19e-06 $X=1175 $Y=4585 $D=25
M7 25 37 24 3 pmos L=1.4e-07 W=2.24e-06 $X=2365 $Y=4620 $D=25
M8 27 38 26 3 pmos L=1.4e-07 W=2.24e-06 $X=2855 $Y=4585 $D=25
M9 3 3 31 3 pmos L=1.4e-07 W=7.7e-07 $X=5750 $Y=5670 $D=25
M10 33 39 16 3 pmos L=1.4e-07 W=1.54e-06 $X=7325 $Y=5670 $D=25
.ENDS
***************************************
.SUBCKT nand04 VDD 3 4 Y 7 8 A3 A2 A0
** N=12 EP=9 IP=0 FDC=4
*.SEEDPROM
M0 4 A2 3 8 nmos L=1.4e-07 W=1.61e-06 $X=1725 $Y=1190 $D=19
M1 7 A3 VDD 8 pmos L=1.4e-07 W=1.68e-06 $X=1095 $Y=5530 $D=25
M2 VDD A2 Y 8 pmos L=1.4e-07 W=1.68e-06 $X=1655 $Y=5530 $D=25
M3 VDD A0 Y 8 pmos L=1.4e-07 W=1.68e-06 $X=2775 $Y=5530 $D=25
.ENDS
***************************************
.SUBCKT nor02
** N=7 EP=0 IP=0 FDC=0
*.SEEDPROM
.ENDS
***************************************
.SUBCKT or02 VSS 3 4 A1
** N=11 EP=4 IP=0 FDC=1
*.SEEDPROM
M0 3 A1 VSS 4 nmos L=1.4e-07 W=3.5e-07 $X=805 $Y=1330 $D=19
.ENDS
***************************************
.SUBCKT or04 VDD VSS 3 4 5 Y A3 A2 A1 A0 14
** N=17 EP=11 IP=0 FDC=8
*.SEEDPROM
M0 3 A3 VSS 14 nmos L=1.4e-07 W=4.9e-07 $X=1225 $Y=1190 $D=19
M1 VSS A2 4 14 nmos L=1.4e-07 W=4.9e-07 $X=1785 $Y=1190 $D=19
M2 3 A1 VSS 14 nmos L=1.4e-07 W=4.9e-07 $X=2345 $Y=1190 $D=19
M3 Y 3 5 14 nmos L=1.4e-07 W=3.5e-07 $X=3500 $Y=1190 $D=19
M4 15 A3 3 14 pmos L=1.4e-07 W=3.01e-06 $X=1330 $Y=4200 $D=25
M5 16 A2 15 14 pmos L=1.4e-07 W=3.01e-06 $X=1750 $Y=4200 $D=25
M6 17 A1 16 14 pmos L=1.4e-07 W=3.01e-06 $X=2170 $Y=4200 $D=25
M7 VDD A0 17 14 pmos L=1.4e-07 W=3.01e-06 $X=2590 $Y=4200 $D=25
.ENDS
***************************************
.SUBCKT nand02
** N=7 EP=0 IP=0 FDC=0
*.SEEDPROM
.ENDS
***************************************
.SUBCKT inv01
** N=5 EP=0 IP=0 FDC=0
*.SEEDPROM
.ENDS
***************************************
.SUBCKT nor04 VSS 4 6 7 8 A2 A3
** N=19 EP=7 IP=0 FDC=2
*.SEEDPROM
M0 7 A2 6 4 nmos L=1.4e-07 W=7.7e-07 $X=2215 $Y=1190 $D=19
M1 VSS A3 8 4 nmos L=1.4e-07 W=7.7e-07 $X=2775 $Y=1190 $D=19
.ENDS
***************************************
.SUBCKT nand03 VDD 4 Y 7 8 A2 A1 12
** N=12 EP=8 IP=0 FDC=3
*.SEEDPROM
M0 12 A1 4 8 nmos L=1.4e-07 W=1.19e-06 $X=1335 $Y=1190 $D=19
M1 VDD A2 Y 8 pmos L=1.4e-07 W=1.26e-06 $X=775 $Y=5950 $D=25
M2 Y A1 7 8 pmos L=1.4e-07 W=1.26e-06 $X=1335 $Y=5950 $D=25
.ENDS
***************************************
.SUBCKT ICV_4 1 5 6 7 8 9 12 15 16 17 18
** N=19 EP=11 IP=14 FDC=6
*.SEEDPROM
M0 7 17 6 1 nmos L=1.4e-07 W=7.7e-07 $X=805 $Y=1610 $D=19
M1 1 18 8 1 nmos L=1.4e-07 W=7.7e-07 $X=1225 $Y=1610 $D=19
M2 9 17 12 1 nmos L=1.4e-07 W=7.7e-07 $X=2905 $Y=1610 $D=19
M3 5 17 1 1 pmos L=1.4e-07 W=1.19e-06 $X=1175 $Y=4585 $D=25
M4 1 18 5 1 pmos L=1.4e-07 W=1.19e-06 $X=1735 $Y=4585 $D=25
M5 16 17 15 1 pmos L=1.4e-07 W=2.24e-06 $X=2365 $Y=4620 $D=25
.ENDS
***************************************
.SUBCKT ICV_5 1 2 4 5 6 7 8 9 10 11 14 15 16 17 18 19 20 21 22 23
+ 25 26 27 30 31 32 33 34 36 37 38 39 40 41 42 43 44 46 47 48
+ 49 50 51 54
** N=55 EP=44 IP=45 FDC=29
*.SEEDPROM
M0 5 2 4 2 nmos L=1.4e-07 W=7.7e-07 $X=1445 $Y=1190 $D=19
M1 7 46 6 2 nmos L=1.4e-07 W=7.7e-07 $X=1865 $Y=1190 $D=19
M2 2 1 8 2 nmos L=1.4e-07 W=7.7e-07 $X=2845 $Y=1190 $D=19
M3 11 7 10 2 nmos L=1.4e-07 W=7.7e-07 $X=3405 $Y=1190 $D=19
M4 2 48 50 2 nmos L=1.4e-07 W=3.5e-07 $X=5215 $Y=2310 $D=19
M5 14 50 51 2 nmos L=1.4e-07 W=3.5e-07 $X=6195 $Y=2310 $D=19
M6 16 49 15 2 nmos L=1.4e-07 W=1.19e-06 $X=6790 $Y=1575 $D=19
M7 2 18 17 2 nmos L=1.4e-07 W=1.19e-06 $X=7210 $Y=1575 $D=19
M8 20 18 19 2 nmos L=1.4e-07 W=7.7e-07 $X=8960 $Y=1645 $D=19
M9 52 20 2 2 nmos L=1.4e-07 W=1.19e-06 $X=10080 $Y=1960 $D=19
M10 21 48 52 2 nmos L=1.4e-07 W=1.19e-06 $X=10500 $Y=1960 $D=19
M11 22 18 21 2 nmos L=1.4e-07 W=3.5e-07 $X=11095 $Y=2660 $D=19
M12 2 53 23 2 nmos L=1.4e-07 W=3.5e-07 $X=11515 $Y=2660 $D=19
M13 53 21 2 2 nmos L=1.4e-07 W=3.5e-07 $X=12075 $Y=2660 $D=19
M14 27 43 26 2 nmos L=1.4e-07 W=7.7e-07 $X=13685 $Y=1330 $D=19
M15 31 2 30 2 pmos L=1.4e-07 W=1.54e-06 $X=1445 $Y=5670 $D=25
M16 7 47 32 2 pmos L=1.4e-07 W=1.54e-06 $X=1865 $Y=5670 $D=25
M17 2 1 33 2 pmos L=1.4e-07 W=1.54e-06 $X=2845 $Y=5670 $D=25
M18 34 7 9 2 pmos L=1.4e-07 W=1.54e-06 $X=3405 $Y=5670 $D=25
M19 36 50 54 2 pmos L=1.4e-07 W=3.5e-07 $X=6195 $Y=4655 $D=25
M20 38 49 37 2 pmos L=1.4e-07 W=2.24e-06 $X=6790 $Y=4235 $D=25
M21 2 20 39 2 pmos L=1.4e-07 W=2.24e-06 $X=7210 $Y=4235 $D=25
M22 55 18 2 2 pmos L=1.4e-07 W=2.24e-06 $X=10010 $Y=4235 $D=25
M23 21 48 55 2 pmos L=1.4e-07 W=2.24e-06 $X=10430 $Y=4235 $D=25
M24 40 20 21 2 pmos L=1.4e-07 W=3.5e-07 $X=11025 $Y=5285 $D=25
M25 2 53 41 2 pmos L=1.4e-07 W=3.5e-07 $X=11445 $Y=5285 $D=25
M26 53 21 42 2 pmos L=1.4e-07 W=3.5e-07 $X=12005 $Y=5285 $D=25
X28 2 21 25 2 44 2 dff $T=4410 0 0 0 $X=4410 $Y=0
.ENDS
***************************************
.SUBCKT ICV_6 1 2 3 4 12 14 15 16 17 19 23 25 26 27 28 31
** N=31 EP=16 IP=18 FDC=6
*.SEEDPROM
M0 3 27 2 1 nmos L=1.4e-07 W=7.7e-07 $X=-3045 $Y=1610 $D=19
M1 15 31 14 1 nmos L=1.4e-07 W=7.7e-07 $X=2425 $Y=1190 $D=19
M2 17 12 16 1 nmos L=1.4e-07 W=7.7e-07 $X=2845 $Y=1190 $D=19
M3 19 28 4 1 pmos L=1.4e-07 W=2.24e-06 $X=-2995 $Y=4585 $D=25
M4 14 31 23 1 pmos L=1.4e-07 W=1.54e-06 $X=1865 $Y=5670 $D=25
M5 26 12 25 1 pmos L=1.4e-07 W=1.54e-06 $X=2845 $Y=5670 $D=25
.ENDS
***************************************
.SUBCKT dffr VDD VSS 3 4 5 6 7 8 9 10 11 12 13 QB Q 18 19 D R 27
+ 28 29 32
** N=34 EP=23 IP=0 FDC=23
*.SEEDPROM
M0 3 D 28 27 nmos L=1.4e-07 W=1.19e-06 $X=1125 $Y=1470 $D=19
M1 29 4 3 27 nmos L=1.4e-07 W=3.5e-07 $X=1720 $Y=2310 $D=19
M2 4 3 VSS 27 nmos L=1.4e-07 W=7.7e-07 $X=2735 $Y=1890 $D=19
M3 5 R 4 27 nmos L=1.4e-07 W=7.7e-07 $X=3295 $Y=1890 $D=19
M4 6 4 VSS 27 nmos L=1.4e-07 W=3.5e-07 $X=3890 $Y=2310 $D=19
M5 8 7 VSS 27 nmos L=1.4e-07 W=7.7e-07 $X=5955 $Y=2310 $D=19
M6 11 7 10 27 nmos L=1.4e-07 W=3.5e-07 $X=7460 $Y=2625 $D=19
M7 30 6 11 27 nmos L=1.4e-07 W=1.19e-06 $X=8055 $Y=1785 $D=19
M8 VSS 8 30 27 nmos L=1.4e-07 W=1.19e-06 $X=8475 $Y=1785 $D=19
M9 12 R 9 27 nmos L=1.4e-07 W=3.5e-07 $X=9630 $Y=1785 $D=19
M10 13 11 VSS 27 nmos L=1.4e-07 W=3.5e-07 $X=10190 $Y=1785 $D=19
M11 Q QB VSS 27 nmos L=1.4e-07 W=7.7e-07 $X=11905 $Y=1330 $D=19
M12 32 4 3 27 pmos L=1.4e-07 W=3.5e-07 $X=1720 $Y=6335 $D=25
M13 33 3 VDD 27 pmos L=1.4e-07 W=1.05e-06 $X=2735 $Y=5635 $D=25
M14 4 R 33 27 pmos L=1.4e-07 W=1.05e-06 $X=3155 $Y=5635 $D=25
M15 6 4 VDD 27 pmos L=1.4e-07 W=7.7e-07 $X=4275 $Y=5915 $D=25
M16 8 7 VDD 27 pmos L=1.4e-07 W=1.54e-06 $X=5955 $Y=5180 $D=25
M17 11 8 18 27 pmos L=1.4e-07 W=3.5e-07 $X=7460 $Y=4830 $D=25
M18 34 6 11 27 pmos L=1.4e-07 W=2.24e-06 $X=8055 $Y=4830 $D=25
M19 VDD 7 34 27 pmos L=1.4e-07 W=2.24e-06 $X=8475 $Y=4830 $D=25
M20 9 R 19 27 pmos L=1.4e-07 W=3.5e-07 $X=9490 $Y=4830 $D=25
M21 13 11 VDD 27 pmos L=1.4e-07 W=7.7e-07 $X=10190 $Y=6300 $D=25
M22 Q QB VDD 27 pmos L=1.4e-07 W=1.54e-06 $X=11905 $Y=5530 $D=25
.ENDS
***************************************
.SUBCKT ICV_7 1 2 3 4 6 7 8 9 10 11 12 14 15 17 19 21 22 23 24 25
+ 26 27 28 34
** N=38 EP=24 IP=45 FDC=30
*.SEEDPROM
M0 1 28 14 1 nmos L=1.4e-07 W=3.5e-07 $X=850 $Y=1610 $D=19
M1 15 28 1 1 nmos L=1.4e-07 W=7.7e-07 $X=1445 $Y=1190 $D=19
M2 1 12 17 1 nmos L=1.4e-07 W=7.7e-07 $X=2845 $Y=1190 $D=19
M3 11 10 1 1 nmos L=1.4e-07 W=3.5e-07 $X=-945 $Y=2310 $D=19
M4 1 6 35 1 nmos L=1.4e-07 W=3.5e-07 $X=-1505 $Y=2310 $D=19
M5 35 11 10 1 nmos L=1.4e-07 W=3.5e-07 $X=-1925 $Y=2310 $D=19
M6 9 8 1 1 nmos L=1.4e-07 W=1.19e-06 $X=-2940 $Y=1575 $D=19
M7 7 1 1 1 nmos L=1.4e-07 W=7.7e-07 $X=-4130 $Y=1645 $D=19
M8 1 8 6 1 nmos L=1.4e-07 W=7.7e-07 $X=-4690 $Y=1645 $D=19
M9 1 6 34 1 nmos L=1.4e-07 W=1.19e-06 $X=-5810 $Y=1960 $D=19
M10 4 8 33 1 nmos L=1.4e-07 W=3.5e-07 $X=-6825 $Y=2660 $D=19
M11 33 32 1 1 nmos L=1.4e-07 W=3.5e-07 $X=-7245 $Y=2660 $D=19
M12 1 4 32 1 nmos L=1.4e-07 W=3.5e-07 $X=-7805 $Y=2660 $D=19
M13 1 3 2 1 nmos L=1.4e-07 W=7.7e-07 $X=-9415 $Y=1330 $D=19
M14 1 28 23 1 pmos L=1.4e-07 W=7.7e-07 $X=850 $Y=5670 $D=25
M15 24 28 1 1 pmos L=1.4e-07 W=1.54e-06 $X=1445 $Y=5670 $D=25
M16 1 12 25 1 pmos L=1.4e-07 W=1.54e-06 $X=2845 $Y=5670 $D=25
M17 11 10 1 1 pmos L=1.4e-07 W=3.5e-07 $X=-945 $Y=4655 $D=25
M18 1 8 38 1 pmos L=1.4e-07 W=3.5e-07 $X=-1505 $Y=4655 $D=25
M19 38 11 10 1 pmos L=1.4e-07 W=3.5e-07 $X=-1925 $Y=4655 $D=25
M20 22 6 1 1 pmos L=1.4e-07 W=2.24e-06 $X=-2940 $Y=4235 $D=25
M21 1 8 6 1 pmos L=1.4e-07 W=1.54e-06 $X=-4620 $Y=4935 $D=25
M22 1 8 37 1 pmos L=1.4e-07 W=2.24e-06 $X=-5740 $Y=4235 $D=25
M23 37 10 21 1 pmos L=1.4e-07 W=2.24e-06 $X=-6160 $Y=4235 $D=25
M24 4 6 36 1 pmos L=1.4e-07 W=3.5e-07 $X=-6755 $Y=5285 $D=25
M25 36 32 1 1 pmos L=1.4e-07 W=3.5e-07 $X=-7175 $Y=5285 $D=25
M26 1 4 32 1 pmos L=1.4e-07 W=3.5e-07 $X=-7735 $Y=5285 $D=25
M27 1 3 2 1 pmos L=1.4e-07 W=1.54e-06 $X=-9415 $Y=5530 $D=25
X29 1 4 26 27 3 19 dff $T=0 0 1 180 $X=-10290 $Y=0
.ENDS
***************************************
.SUBCKT ICV_8 1 6 16 17
** N=21 EP=4 IP=14 FDC=1
*.SEEDPROM
M0 17 6 16 1 pmos L=1.4e-07 W=1.19e-06 $X=5900 $Y=4620 $D=25
.ENDS
***************************************
.SUBCKT ICV_9 1 3 4 5 6 10 11 16 19 20 26 28 31 32 33
** N=33 EP=15 IP=32 FDC=8
*.SEEDPROM
M0 11 28 10 1 nmos L=1.4e-07 W=7.7e-07 $X=9215 $Y=1190 $D=19
M1 1 32 33 1 nmos L=1.4e-07 W=7.7e-07 $X=3675 $Y=1610 $D=19
M2 5 31 4 1 nmos L=1.4e-07 W=7.7e-07 $X=5355 $Y=1610 $D=19
M3 1 3 6 1 nmos L=1.4e-07 W=7.7e-07 $X=5915 $Y=1610 $D=19
M4 20 1 19 1 pmos L=1.4e-07 W=1.54e-06 $X=9215 $Y=5670 $D=25
M5 3 31 1 1 pmos L=1.4e-07 W=1.19e-06 $X=3625 $Y=4585 $D=25
M6 4 32 16 1 pmos L=1.4e-07 W=2.24e-06 $X=5305 $Y=4585 $D=25
X8 1 3 26 1 ICV_8 $T=0 0 0 0 $X=0 $Y=0
.ENDS
***************************************
.SUBCKT ICV_10 1 3 4 8 14 15 16 18 19 20
** N=20 EP=10 IP=14 FDC=6
*.SEEDPROM
M0 1 19 4 1 nmos L=1.4e-07 W=7.7e-07 $X=-3675 $Y=1610 $D=19
M1 1 3 8 1 nmos L=1.4e-07 W=7.7e-07 $X=-1435 $Y=1610 $D=19
M2 3 18 1 1 pmos L=1.4e-07 W=1.19e-06 $X=-3725 $Y=4585 $D=25
M3 1 19 3 1 pmos L=1.4e-07 W=1.19e-06 $X=-3165 $Y=4585 $D=25
M4 1 3 14 1 pmos L=1.4e-07 W=1.19e-06 $X=-1450 $Y=4620 $D=25
M5 16 20 15 1 pmos L=1.4e-07 W=1.19e-06 $X=1435 $Y=6020 $D=25
.ENDS
***************************************
.SUBCKT nor03 Y VDD VSS 4 A0 A2 8 9
** N=9 EP=8 IP=0 FDC=4
*.SEEDPROM
M0 VSS A0 Y 8 nmos L=1.4e-07 W=4.2e-07 $X=875 $Y=1190 $D=19
M1 VSS A2 Y 8 nmos L=1.4e-07 W=4.2e-07 $X=1995 $Y=1190 $D=19
M2 9 A0 VDD 8 pmos L=1.4e-07 W=1.68e-06 $X=875 $Y=5530 $D=25
M3 Y A2 4 8 pmos L=1.4e-07 W=1.68e-06 $X=1715 $Y=5530 $D=25
.ENDS
***************************************
.SUBCKT oai32 Y 4 6 7 8 A0 A1 A2 B0 14
** N=16 EP=10 IP=0 FDC=5
*.SEEDPROM
M0 4 A2 Y 14 nmos L=1.4e-07 W=7.7e-07 $X=1925 $Y=1540 $D=19
M1 15 A0 6 14 pmos L=1.4e-07 W=2.73e-06 $X=1085 $Y=4480 $D=25
M2 16 A1 15 14 pmos L=1.4e-07 W=2.73e-06 $X=1505 $Y=4480 $D=25
M3 Y A2 16 14 pmos L=1.4e-07 W=2.73e-06 $X=1925 $Y=4480 $D=25
M4 8 B0 7 14 pmos L=1.4e-07 W=2.03e-06 $X=2940 $Y=4480 $D=25
.ENDS
***************************************
.SUBCKT and02 1 VDD 3 4 A0
** N=8 EP=5 IP=0 FDC=2
*.SEEDPROM
M0 3 A0 1 4 nmos L=1.4e-07 W=7.7e-07 $X=945 $Y=1190 $D=19
M1 1 A0 VDD 4 pmos L=1.4e-07 W=1.05e-06 $X=805 $Y=6160 $D=25
.ENDS
***************************************
.SUBCKT aoi21 VSS 4 Y 7 9 10 11 A1 A0 B0
** N=15 EP=10 IP=0 FDC=4
*.SEEDPROM
M0 4 A1 VSS 7 nmos L=1.4e-07 W=7.7e-07 $X=805 $Y=1170 $D=19
M1 VSS B0 Y 7 nmos L=1.4e-07 W=3.5e-07 $X=1820 $Y=1590 $D=19
M2 10 A1 9 7 pmos L=1.4e-07 W=1.19e-06 $X=805 $Y=6020 $D=25
M3 9 A0 11 7 pmos L=1.4e-07 W=1.19e-06 $X=1365 $Y=6020 $D=25
.ENDS
***************************************
.SUBCKT inv02 VSS Y 5 A 7
** N=7 EP=5 IP=0 FDC=2
M0 Y A VSS 7 nmos L=1.4e-07 W=7.7e-07 $X=805 $Y=1750 $D=19
M1 Y A 5 7 pmos L=1.4e-07 W=1.54e-06 $X=805 $Y=4970 $D=25
.ENDS
***************************************
.SUBCKT aoi22 3 4 6 A0
** N=17 EP=4 IP=0 FDC=1
*.SEEDPROM
M0 4 A0 3 6 nmos L=1.4e-07 W=7.7e-07 $X=1365 $Y=1190 $D=19
.ENDS
***************************************
.SUBCKT aoi221 VDD 3 4 6 8 C0 A1 A0 17 18
** N=18 EP=10 IP=0 FDC=4
*.SEEDPROM
M0 4 C0 3 6 nmos L=1.4e-07 W=3.5e-07 $X=755 $Y=1750 $D=19
M1 8 A0 17 6 nmos L=1.4e-07 W=9.1e-07 $X=2785 $Y=1190 $D=19
M2 VDD A1 18 6 pmos L=1.4e-07 W=1.61e-06 $X=2995 $Y=5600 $D=25
M3 18 A0 VDD 6 pmos L=1.4e-07 W=1.61e-06 $X=3555 $Y=5600 $D=25
.ENDS
***************************************
.SUBCKT oai22 5 12 13 B0
** N=20 EP=4 IP=0 FDC=1
*.SEEDPROM
M0 13 B0 12 5 pmos L=1.4e-07 W=2.03e-06 $X=1435 $Y=5265 $D=25
.ENDS
***************************************
.SUBCKT MAC_BIST VDD multiplierOut[19] multiplierOut[15] multiplierOut[23] multiplierOut[1] multiplierOut[31] multiplierOut[30] multiplierOut[13] multiplierOut[27] multiplierOut[8] multiplierOut[4] multiplierOut[0] multiplierOut[2] multiplierOut[7] multiplierOut[6] multiplierOut[14] multiplierOut[5] multiplierOut[28] multiplierOut[24] multiplierOut[20]
+ multiplierOut[9] multiplierOut[17] multiplierOut[18] A[14] A[9] B[6] B[11] B[5] B[14] B[7] B[2] B[9] A[5] A[11] A[2] A[0] B[3] B[8] B[0] A[10]
+ tst_output_flag
** N=5562 EP=41 IP=14466 FDC=12522
M0 VDD VDD 5066 VDD nmos L=2.056e-07 W=8.75e-07 $X=420 $Y=236320 $D=19
M1 3501 VDD 3501 VDD nmos L=1e-07 W=3.85e-07 $X=500 $Y=211255 $D=19
M2 5 VDD VDD VDD nmos L=1.3e-07 W=3.5e-07 $X=565 $Y=111555 $D=19
M3 VDD VDD VDD VDD nmos L=1.3e-07 W=7.7e-07 $X=565 $Y=135220 $D=19
M4 VDD VDD VDD VDD nmos L=1.3e-07 W=1.61e-06 $X=565 $Y=160705 $D=19
M5 VDD VDD VDD VDD nmos L=6e-08 W=5.95e-07 $X=580 $Y=185630 $D=19
M6 VDD VDD 3 VDD nmos L=1.69766e-07 W=8.55e-07 $X=520 $Y=312720 $D=19
M7 VDD VDD multiplierOut[15] VDD nmos L=1.8125e-07 W=5.6e-07 $X=1455 $Y=34820 $D=19
M8 24 VDD 5115 VDD nmos L=1.95e-07 W=7.7e-07 $X=1810 $Y=211255 $D=19
M9 21 VDD VDD VDD nmos L=1.7e-07 W=3.5e-07 $X=1810 $Y=237580 $D=19
M10 18 VDD VDD VDD nmos L=1.3e-07 W=7.7e-07 $X=1810 $Y=261665 $D=19
M11 30 VDD 5237 VDD nmos L=1.95e-07 W=7.7e-07 $X=1810 $Y=286870 $D=19
M12 19 VDD VDD VDD nmos L=1.3e-07 W=7.7e-07 $X=1810 $Y=312215 $D=19
M13 34 VDD 23 VDD nmos L=2.65e-07 W=7.7e-07 $X=2300 $Y=85230 $D=19
M14 VDD VDD 31 VDD nmos L=1.35e-07 W=9.8e-07 $X=2510 $Y=186050 $D=19
M15 VDD VDD 5068 VDD nmos L=1.3e-07 W=7.7e-07 $X=2545 $Y=237160 $D=19
M16 32 VDD VDD VDD nmos L=1.39333e-07 W=1.05e-06 $X=2545 $Y=261245 $D=19
M17 5113 VDD 24 VDD nmos L=2.5e-07 W=7.7e-07 $X=2425 $Y=211255 $D=19
M18 5235 VDD 30 VDD nmos L=1.95e-07 W=7.7e-07 $X=2425 $Y=286870 $D=19
M19 VDD VDD VDD VDD nmos L=1.11609e-07 W=2.175e-07 $X=3395 $Y=186555 $D=19
M20 VDD VDD VDD VDD nmos L=6e-08 W=3.85e-07 $X=3770 $Y=237160 $D=19
M21 63 VDD VDD VDD nmos L=1.3e-07 W=7.7e-07 $X=5965 $Y=237580 $D=19
M22 5112 VDD VDD VDD nmos L=2.3e-07 W=7.7e-07 $X=5865 $Y=211395 $D=19
M23 62 VDD 62 VDD nmos L=1.1e-07 W=1.75e-07 $X=6040 $Y=187520 $D=19
M24 VDD VDD VDD VDD nmos L=1.3e-07 W=1.19e-06 $X=6395 $Y=111205 $D=19
M25 5060 VDD VDD VDD nmos L=1.37179e-07 W=1.365e-06 $X=6395 $Y=135605 $D=19
M26 72 VDD 68 VDD nmos L=2.4e-07 W=1.19e-06 $X=6810 $Y=287255 $D=19
M27 VDD VDD 5223 VDD nmos L=1.3e-07 W=7.7e-07 $X=7415 $Y=262365 $D=19
M28 VDD VDD 81 VDD nmos L=1.68182e-07 W=7.7e-07 $X=7900 $Y=162175 $D=19
M29 VDD VDD 91 VDD nmos L=1.3e-07 W=3.5e-07 $X=8540 $Y=85230 $D=19
M30 94 VDD VDD VDD nmos L=1.3e-07 W=7.7e-07 $X=9160 $Y=136095 $D=19
M31 93 VDD VDD VDD nmos L=1.35e-07 W=9.8e-07 $X=9160 $Y=110155 $D=19
M32 VDD VDD 114 VDD nmos L=2.15e-07 W=7.7e-07 $X=11110 $Y=60025 $D=19
M33 124 VDD VDD VDD nmos L=2.05e-07 W=3.5e-07 $X=11610 $Y=111555 $D=19
M34 VDD VDD 118 VDD nmos L=2.05e-07 W=7.7e-07 $X=11610 $Y=160985 $D=19
M35 VDD VDD 117 VDD nmos L=2.4e-07 W=1.19e-06 $X=11500 $Y=136410 $D=19
M36 125 VDD 121 VDD nmos L=2.15e-07 W=7.7e-07 $X=11665 $Y=34820 $D=19
M37 133 VDD VDD VDD nmos L=1.96281e-07 W=7.125e-07 $X=12480 $Y=161490 $D=19
M38 134 VDD VDD VDD nmos L=2.4e-07 W=1.19e-06 $X=12690 $Y=110820 $D=19
M39 VDD VDD VDD VDD nmos L=1.3e-07 W=7.7e-07 $X=14000 $Y=211955 $D=19
M40 5224 VDD VDD VDD nmos L=1.3e-07 W=3.5e-07 $X=14515 $Y=262260 $D=19
M41 VDD VDD 149 VDD nmos L=1.3e-07 W=3.5e-07 $X=14550 $Y=85370 $D=19
M42 VDD VDD 148 VDD nmos L=1.3e-07 W=1.19e-06 $X=14550 $Y=110470 $D=19
M43 151 VDD 5111 VDD nmos L=1.3e-07 W=7.7e-07 $X=14550 $Y=211955 $D=19
M44 150 VDD VDD VDD nmos L=1.35e-07 W=9.8e-07 $X=14550 $Y=135360 $D=19
M45 157 VDD VDD VDD nmos L=1.84145e-07 W=6.875e-07 $X=14980 $Y=136285 $D=19
M46 161 VDD VDD VDD nmos L=1.3e-07 W=7.7e-07 $X=15415 $Y=236460 $D=19
M47 VDD VDD 156 VDD nmos L=2.5e-07 W=3.5e-07 $X=15415 $Y=287990 $D=19
M48 VDD VDD 158 VDD nmos L=2.15e-07 W=3.5e-07 $X=15415 $Y=313195 $D=19
M49 162 VDD VDD VDD nmos L=1.3e-07 W=7.7e-07 $X=15415 $Y=337280 $D=19
M50 VDD VDD 5335 VDD nmos L=2.6e-07 W=7.7e-07 $X=15285 $Y=261805 $D=19
M51 165 VDD 164 VDD nmos L=1.3e-07 W=7.7e-07 $X=15810 $Y=236460 $D=19
M52 VDD VDD 5149 VDD nmos L=1.3875e-07 W=5.6e-07 $X=15810 $Y=186050 $D=19
M53 5110 VDD 5458 VDD nmos L=1.41818e-07 W=7.7e-07 $X=15700 $Y=212375 $D=19
M54 VDD VDD VDD VDD nmos L=2.15e-07 W=3.5e-07 $X=16575 $Y=160845 $D=19
M55 180 VDD VDD VDD nmos L=1.95e-07 W=7.7e-07 $X=17485 $Y=262085 $D=19
M56 184 VDD VDD VDD nmos L=1.3e-07 W=3.5e-07 $X=17840 $Y=35940 $D=19
M57 VDD VDD VDD VDD nmos L=1.3e-07 W=1.505e-06 $X=17840 $Y=59990 $D=19
M58 VDD VDD 183 VDD nmos L=1.3e-07 W=3.5e-07 $X=17840 $Y=86560 $D=19
M59 5061 VDD VDD VDD nmos L=1.3e-07 W=3.5e-07 $X=17840 $Y=111905 $D=19
M60 185 VDD VDD VDD nmos L=1.3e-07 W=7.7e-07 $X=17840 $Y=136060 $D=19
M61 VDD VDD 191 VDD nmos L=2.05e-07 W=7.7e-07 $X=19025 $Y=262085 $D=19
M62 VDD VDD 202 VDD nmos L=1.3e-07 W=1.19e-06 $X=19625 $Y=60410 $D=19
M63 VDD VDD VDD VDD nmos L=2.4e-07 W=7.7e-07 $X=19625 $Y=86350 $D=19
M64 VDD VDD VDD VDD nmos L=1.3e-07 W=5.95e-07 $X=19625 $Y=135640 $D=19
M65 VDD VDD 5267 VDD nmos L=1.3e-07 W=7.7e-07 $X=19625 $Y=161265 $D=19
M66 206 VDD VDD VDD nmos L=2.05e-07 W=1.19e-06 $X=19550 $Y=35205 $D=19
M67 208 VDD VDD VDD nmos L=1.7e-07 W=7.7e-07 $X=19585 $Y=110575 $D=19
M68 VDD VDD 209 VDD nmos L=1.3e-07 W=1.19e-06 $X=20045 $Y=287640 $D=19
M69 214 VDD VDD VDD nmos L=1.28012e-07 W=8.55e-07 $X=20230 $Y=161980 $D=19
M70 VDD VDD VDD VDD nmos L=1.8125e-07 W=5.6e-07 $X=23825 $Y=160425 $D=19
M71 256 VDD 252 VDD nmos L=1.3e-07 W=1.19e-06 $X=24175 $Y=262050 $D=19
M72 VDD VDD VDD VDD nmos L=1.1e-07 W=3.85e-07 $X=25500 $Y=110575 $D=19
M73 VDD VDD VDD VDD nmos L=1.3e-07 W=1.19e-06 $X=26160 $Y=160425 $D=19
M74 VDD VDD 273 VDD nmos L=2.2e-07 W=7.7e-07 $X=26285 $Y=85230 $D=19
M75 282 VDD 278 VDD nmos L=2.6e-07 W=7.7e-07 $X=26755 $Y=135640 $D=19
M76 VDD VDD 280 VDD nmos L=2.5e-07 W=7.7e-07 $X=26755 $Y=160845 $D=19
M77 VDD VDD VDD VDD nmos L=1.3e-07 W=3.5e-07 $X=27020 $Y=312075 $D=19
M78 VDD VDD VDD VDD nmos L=1.3e-07 W=7.7e-07 $X=27160 $Y=160845 $D=19
M79 VDD VDD 286 VDD nmos L=1.3e-07 W=1.19e-06 $X=27405 $Y=186050 $D=19
M80 308 VDD VDD VDD nmos L=1.3e-07 W=3.5e-07 $X=29250 $Y=85650 $D=19
M81 310 VDD 307 VDD nmos L=1.3e-07 W=1.19e-06 $X=29250 $Y=111205 $D=19
M82 VDD VDD 315 VDD nmos L=2.4e-07 W=1.19e-06 $X=30160 $Y=35205 $D=19
M83 VDD VDD 313 VDD nmos L=1.95e-07 W=3.5e-07 $X=30170 $Y=312075 $D=19
M84 VDD VDD 320 VDD nmos L=1.3e-07 W=7.7e-07 $X=30625 $Y=186470 $D=19
M85 5178 VDD VDD VDD nmos L=1.28012e-07 W=8.55e-07 $X=30450 $Y=212110 $D=19
M86 VDD VDD VDD VDD nmos L=6e-08 W=7e-08 $X=31140 $Y=110470 $D=19
M87 VDD VDD VDD VDD nmos L=1.7e-07 W=7.7e-07 $X=31140 $Y=110890 $D=19
M88 VDD VDD VDD VDD nmos L=6e-08 W=5.95e-07 $X=31140 $Y=135640 $D=19
M89 VDD VDD VDD VDD nmos L=1.3e-07 W=7.7e-07 $X=31140 $Y=236600 $D=19
M90 VDD VDD VDD VDD nmos L=1.3e-07 W=7.7e-07 $X=31140 $Y=261805 $D=19
M91 VDD VDD VDD VDD nmos L=1.95e-07 W=7.7e-07 $X=31075 $Y=160845 $D=19
M92 VDD VDD VDD VDD nmos L=4e-08 W=7e-08 $X=31250 $Y=160425 $D=19
M93 VDD VDD 324 VDD nmos L=2.4e-07 W=7.7e-07 $X=31665 $Y=287290 $D=19
M94 VDD VDD 328 VDD nmos L=1.3e-07 W=3.5e-07 $X=32095 $Y=60025 $D=19
M95 VDD VDD VDD VDD nmos L=2.15e-07 W=7.7e-07 $X=32010 $Y=35275 $D=19
M96 333 VDD 332 VDD nmos L=1.3e-07 W=1.19e-06 $X=32575 $Y=110820 $D=19
M97 340 VDD VDD VDD nmos L=1.95e-07 W=3.5e-07 $X=32815 $Y=186190 $D=19
M98 VDD VDD 337 VDD nmos L=1.3e-07 W=1.19e-06 $X=33030 $Y=110820 $D=19
M99 VDD VDD 5125 VDD nmos L=1.3375e-07 W=9.8e-07 $X=33030 $Y=136060 $D=19
M100 345 VDD 336 VDD nmos L=2.4e-07 W=1.19e-06 $X=33270 $Y=337665 $D=19
M101 347 VDD VDD VDD nmos L=2.65e-07 W=3.5e-07 $X=33375 $Y=111555 $D=19
M102 360 VDD VDD VDD nmos L=1.3e-07 W=7.7e-07 $X=34545 $Y=60025 $D=19
M103 VDD VDD VDD VDD nmos L=1.3e-07 W=1.19e-06 $X=35435 $Y=161230 $D=19
M104 VDD VDD 369 VDD nmos L=1.3e-07 W=3.5e-07 $X=35435 $Y=186050 $D=19
M105 378 VDD VDD VDD nmos L=1.35e-07 W=9.8e-07 $X=36110 $Y=286450 $D=19
M106 VDD VDD 388 VDD nmos L=1.3e-07 W=7.7e-07 $X=37375 $Y=110855 $D=19
M107 VDD VDD 5126 VDD nmos L=1.47857e-07 W=9.8e-07 $X=37375 $Y=135220 $D=19
M108 391 VDD VDD VDD nmos L=1.3e-07 W=3.5e-07 $X=37375 $Y=187170 $D=19
M109 392 VDD VDD VDD nmos L=1.3e-07 W=3.5e-07 $X=37375 $Y=236880 $D=19
M110 5053 VDD 390 VDD nmos L=1.3e-07 W=7.7e-07 $X=37375 $Y=286870 $D=19
M111 VDD VDD 389 VDD nmos L=1.3e-07 W=3.5e-07 $X=37380 $Y=60655 $D=19
M112 393 VDD VDD VDD nmos L=1.3e-07 W=3.5e-07 $X=37380 $Y=85650 $D=19
M113 VDD VDD VDD VDD nmos L=7e-08 W=7e-08 $X=37470 $Y=160880 $D=19
M114 VDD VDD VDD VDD nmos L=1.75e-07 W=7.7e-07 $X=37330 $Y=161300 $D=19
M115 VDD VDD 396 VDD nmos L=1.3e-07 W=1.19e-06 $X=38185 $Y=211255 $D=19
M116 VDD VDD 404 VDD nmos L=1.3e-07 W=1.19e-06 $X=38720 $Y=161615 $D=19
M117 VDD VDD 408 VDD nmos L=1.3e-07 W=7.7e-07 $X=38720 $Y=211675 $D=19
M118 VDD VDD 407 VDD nmos L=1.51818e-07 W=7.7e-07 $X=38720 $Y=187170 $D=19
M119 411 VDD VDD VDD nmos L=2.25e-07 W=3.5e-07 $X=38625 $Y=262785 $D=19
M120 410 VDD 400 VDD nmos L=2.15e-07 W=7.7e-07 $X=38635 $Y=236460 $D=19
M121 VDD VDD 415 VDD nmos L=1.3e-07 W=7.7e-07 $X=39155 $Y=136060 $D=19
M122 419 VDD 416 VDD nmos L=1.3e-07 W=1.19e-06 $X=39155 $Y=161615 $D=19
M123 423 VDD 410 VDD nmos L=1.8e-07 W=7.7e-07 $X=39155 $Y=236460 $D=19
M124 VDD VDD VDD VDD nmos L=1.7e-07 W=7.7e-07 $X=39115 $Y=211675 $D=19
M125 VDD VDD 411 VDD nmos L=1.41818e-07 W=7.7e-07 $X=39045 $Y=262785 $D=19
M126 VDD VDD VDD VDD nmos L=1.85789e-07 W=4.275e-07 $X=39210 $Y=286870 $D=19
M127 425 VDD 420 VDD nmos L=1.3e-07 W=1.19e-06 $X=39365 $Y=186435 $D=19
M128 VDD VDD VDD VDD nmos L=6.87135e-08 W=4.275e-07 $X=40605 $Y=85745 $D=19
M129 445 VDD VDD VDD nmos L=1.28012e-07 W=8.55e-07 $X=40740 $Y=312930 $D=19
M130 VDD VDD VDD VDD nmos L=1.3e-07 W=5.95e-07 $X=43140 $Y=311655 $D=19
M131 469 VDD VDD VDD nmos L=1.3e-07 W=1.19e-06 $X=43215 $Y=186820 $D=19
M132 VDD VDD 466 VDD nmos L=1.3e-07 W=3.5e-07 $X=43215 $Y=211255 $D=19
M133 472 VDD 465 VDD nmos L=2.3e-07 W=7.7e-07 $X=43525 $Y=337420 $D=19
M134 VDD VDD 478 VDD nmos L=1.3e-07 W=7.7e-07 $X=44195 $Y=160985 $D=19
M135 484 VDD VDD VDD nmos L=1.95e-07 W=3.5e-07 $X=44575 $Y=287010 $D=19
M136 488 VDD 488 VDD nmos L=1.8e-07 W=1.75e-07 $X=45360 $Y=263135 $D=19
M137 VDD VDD VDD VDD nmos L=1.3e-07 W=7.7e-07 $X=45360 $Y=286590 $D=19
M138 495 VDD VDD VDD nmos L=1.3e-07 W=7.7e-07 $X=45755 $Y=261805 $D=19
M139 VDD VDD VDD VDD nmos L=1.3e-07 W=7.7e-07 $X=46175 $Y=110575 $D=19
M140 VDD VDD VDD VDD nmos L=2.6e-07 W=5.95e-07 $X=46440 $Y=210835 $D=19
M141 VDD VDD VDD VDD nmos L=2.4e-07 W=6.65e-07 $X=46450 $Y=236040 $D=19
M142 VDD VDD VDD VDD nmos L=2.00357e-07 W=9.8e-07 $X=46440 $Y=261385 $D=19
M143 VDD VDD VDD VDD nmos L=6.87135e-08 W=4.275e-07 $X=46560 $Y=286870 $D=19
M144 VDD VDD VDD VDD nmos L=1.69766e-07 W=4.275e-07 $X=46910 $Y=262310 $D=19
M145 VDD VDD 5301 VDD nmos L=1.4125e-07 W=5.6e-07 $X=46995 $Y=237020 $D=19
M146 507 VDD 505 VDD nmos L=1.5e-07 W=3.5e-07 $X=47085 $Y=162315 $D=19
M147 VDD VDD 504 VDD nmos L=2.6e-07 W=7.7e-07 $X=46955 $Y=135640 $D=19
M148 508 VDD VDD VDD nmos L=1.30714e-07 W=9.8e-07 $X=47345 $Y=286450 $D=19
M149 514 VDD 507 VDD nmos L=1.75e-07 W=1.19e-06 $X=47655 $Y=161615 $D=19
M150 5304 VDD VDD VDD nmos L=1.88333e-07 W=8.4e-07 $X=47655 $Y=185630 $D=19
M151 VDD VDD 510 VDD nmos L=2.45e-07 W=3.5e-07 $X=47805 $Y=211675 $D=19
M152 VDD VDD 5303 VDD nmos L=1.85e-07 W=7.7e-07 $X=47805 $Y=236600 $D=19
M153 VDD VDD VDD VDD nmos L=1e-08 W=3.85e-07 $X=48035 $Y=60165 $D=19
M154 5181 VDD 5180 VDD nmos L=1.3e-07 W=3.5e-07 $X=48035 $Y=86700 $D=19
M155 VDD VDD 5300 VDD nmos L=1.3e-07 W=9.1e-07 $X=48035 $Y=110435 $D=19
M156 VDD VDD 512 VDD nmos L=1.6e-07 W=7.7e-07 $X=48005 $Y=35520 $D=19
M157 VDD VDD VDD VDD nmos L=2.3e-07 W=5.95e-07 $X=48345 $Y=135220 $D=19
M158 VDD VDD 516 VDD nmos L=1.3e-07 W=1.19e-06 $X=48345 $Y=161615 $D=19
M159 521 VDD VDD VDD nmos L=2.05e-07 W=7.7e-07 $X=48345 $Y=186190 $D=19
M160 5183 VDD VDD VDD nmos L=1.3e-07 W=7.7e-07 $X=48345 $Y=211255 $D=19
M161 5557 VDD VDD VDD nmos L=2.10625e-07 W=1.12e-06 $X=48345 $Y=236040 $D=19
M162 VDD VDD VDD VDD nmos L=1.3e-07 W=3.85e-07 $X=49020 $Y=59605 $D=19
M163 VDD VDD VDD VDD nmos L=1.3e-07 W=1.19e-06 $X=49515 $Y=160880 $D=19