* LVS netlist generated with ICnet by 'ps9525' on Fri Dec  6 2019 at 18:14:05

*
* Globals.
*
.global VSS VDD

*
* Component pathname : $GDKGATES/nor02
*
.subckt nor02  Y A0 A1 VDD_esc1 VSS_esc2

        MN2 Y A0 VSS_esc2 VSS_esc2 nmos l=0.14u w=0.35u m=1
        MN1 Y A1 VSS_esc2 VSS_esc2 nmos l=0.14u w=0.35u m=1
        MP2 Y A1 N$1 VDD_esc1 pmos l=0.14u w=1.19u m=1
        MP1 N$1 A0 VDD_esc1 VDD_esc1 pmos l=0.14u w=1.19u m=1
.ends nor02

*
* Component pathname : $GDKGATES/xor2
*
.subckt xor2  Y A0 A1 VDD_esc1 VSS_esc2

        MN5 N$6 A1 VSS_esc2 VSS_esc2 nmos l=0.14u w=0.77u m=1
        MN4 N$7 A0 N$6 VSS_esc2 nmos l=0.14u w=0.77u m=1
        MP4 N$7 A1 VDD_esc1 VDD_esc1 pmos l=0.14u w=1.19u m=1
        MP3 N$7 A0 VDD_esc1 VDD_esc1 pmos l=0.14u w=1.19u m=1
        MP1 Y N$4 VDD_esc1 VDD_esc1 pmos l=0.14u w=0.77u m=1
        MN3 N$3 N$7 VSS_esc2 VSS_esc2 nmos l=0.14u w=0.77u m=1
        MN2 N$4 A1 N$3 VSS_esc2 nmos l=0.14u w=0.77u m=1
        MN1 N$4 A0 N$3 VSS_esc2 nmos l=0.14u w=0.77u m=1
        MP6 N$4 A1 N$1 VDD_esc1 pmos l=0.14u w=2.24u m=1
        MP2 N$4 N$7 VDD_esc1 VDD_esc1 pmos l=0.14u w=1.19u m=1
        MP5 N$1 A0 VDD_esc1 VDD_esc1 pmos l=0.14u w=2.24u m=1
        MN6 Y N$4 VSS_esc2 VSS_esc2 nmos l=0.14u w=0.35u m=1
.ends xor2

*
* Component pathname : $GDKGATES/oai22
*
.subckt oai22  Y A0 A1 B0 B1 VDD_esc1 VSS_esc2

        MP4 Y B1 N$5 VDD_esc1 pmos l=0.14u w=2.03u m=1
        MN3 N$7 B0 VSS_esc2 VSS_esc2 nmos l=0.14u w=0.77u m=1
        MN2 Y A1 N$7 VSS_esc2 nmos l=0.14u w=0.77u m=1
        MN1 Y A0 N$7 VSS_esc2 nmos l=0.14u w=0.77u m=1
        MP3 N$5 B0 VDD_esc1 VDD_esc1 pmos l=0.14u w=2.03u m=1
        MP2 Y A1 N$6 VDD_esc1 pmos l=0.14u w=2.03u m=1
        MP1 N$6 A0 VDD_esc1 VDD_esc1 pmos l=0.14u w=2.03u m=1
        MN4 N$7 B1 VSS_esc2 VSS_esc2 nmos l=0.14u w=0.77u m=1
.ends oai22

*
* Component pathname : $GDKGATES/nor02ii
*
.subckt nor02ii  Y A0 A1 VDD_esc1 VSS_esc2

        MN1 N$4 A1 VSS_esc2 VSS_esc2 nmos l=0.14u w=0.35u m=1
        MP1 N$4 A1 VDD_esc1 VDD_esc1 pmos l=0.14u w=0.77u m=1
        MN4 Y A0 VSS_esc2 VSS_esc2 nmos l=0.14u w=0.35u m=1
        MN2 Y N$4 VSS_esc2 VSS_esc2 nmos l=0.14u w=0.35u m=1
        MP4 Y N$4 N$1 VDD_esc1 pmos l=0.14u w=1.19u m=1
        MP2 N$1 A0 VDD_esc1 VDD_esc1 pmos l=0.14u w=1.19u m=1
.ends nor02ii

*
* Component pathname : $GDKGATES/inv01
*
.subckt inv01  Y A VDD_esc1 VSS_esc2

        MP1 Y A VDD_esc1 VDD_esc1 pmos l=0.14u w=0.77u m=1
        MN1 Y A VSS_esc2 VSS_esc2 nmos l=0.14u w=0.35u m=1
.ends inv01

*
* Component pathname : $GDKGATES/xnor2
*
.subckt xnor2  Y A0 A1 VDD_esc1 VSS_esc2

        MP5 N$9 A1 VDD_esc1 VDD_esc1 pmos l=0.14u w=1.19u m=1
        MP4 N$9 A0 VDD_esc1 VDD_esc1 pmos l=0.14u w=1.19u m=1
        MN4 N$9 A0 N$8 VSS_esc2 nmos l=0.14u w=0.77u m=1
        MN3 N$3 N$9 VSS_esc2 VSS_esc2 nmos l=0.14u w=0.77u m=1
        MN2 Y A1 N$3 VSS_esc2 nmos l=0.14u w=0.77u m=1
        MN1 Y A0 N$3 VSS_esc2 nmos l=0.14u w=0.77u m=1
        MP3 Y A1 N$1 VDD_esc1 pmos l=0.14u w=2.24u m=1
        MP2 Y N$9 VDD_esc1 VDD_esc1 pmos l=0.14u w=1.19u m=1
        MP1 N$1 A0 VDD_esc1 VDD_esc1 pmos l=0.14u w=2.24u m=1
        MN5 N$8 A1 VSS_esc2 VSS_esc2 nmos l=0.14u w=0.77u m=1
.ends xnor2

*
* Component pathname : $GDKGATES/mux21
*
.subckt mux21  Y A0 A1 S0 VDD_esc1 VSS_esc2

        MN4 N$11 A1 N$3 VSS_esc2 nmos l=0.14u w=0.77u m=1
        M1 Y N$11 VDD_esc1 VDD_esc1 pmos l=0.14u w=1.54u m=1
        MN5 N$3 S0 VSS_esc2 VSS_esc2 nmos l=0.14u w=0.77u m=1
        M2 Y N$11 VSS_esc2 VSS_esc2 nmos l=0.14u w=0.77u m=1
        MP5 N$11 A1 N$2 VDD_esc1 pmos l=0.14u w=1.54u m=1
        MP4 N$2 N$231 VDD_esc1 VDD_esc1 pmos l=0.14u w=1.54u m=1
        MN3 N$1 N$231 VSS_esc2 VSS_esc2 nmos l=0.14u w=0.77u m=1
        MN2 N$11 A0 N$1 VSS_esc2 nmos l=0.14u w=0.77u m=1
        MP2 N$7 S0 VDD_esc1 VDD_esc1 pmos l=0.14u w=1.54u m=1
        MN1 N$231 S0 VSS_esc2 VSS_esc2 nmos l=0.14u w=0.35u m=1
        MP1 N$231 S0 VDD_esc1 VDD_esc1 pmos l=0.14u w=0.77u m=1
        MP3 N$11 A0 N$7 VDD_esc1 pmos l=0.14u w=1.54u m=1
.ends mux21

*
* Component pathname : $GDKGATES/aoi22
*
.subckt aoi22  Y A0 A1 B0 B1 VDD_esc1 VSS_esc2

        M_I$13 Y B1 N$6 VDD_esc1 pmos l=0.14u w=1.19u m=1
        M_I$12 N$1 A1 VSS_esc2 VSS_esc2 nmos l=0.14u w=0.77u m=1
        M_I$11 Y A0 N$1 VSS_esc2 nmos l=0.14u w=0.77u m=1
        M_I$14 Y B0 N$2 VSS_esc2 nmos l=0.14u w=0.77u m=1
        M_I$7 Y B0 N$6 VDD_esc1 pmos l=0.14u w=1.19u m=1
        M_I$6 N$6 A1 VDD_esc1 VDD_esc1 pmos l=0.14u w=1.19u m=1
        M_I$5 N$6 A0 VDD_esc1 VDD_esc1 pmos l=0.14u w=1.19u m=1
        M_I$4 N$2 B1 VSS_esc2 VSS_esc2 nmos l=0.14u w=0.77u m=1
.ends aoi22

*
* Component pathname : $GDKGATES/dff
*
.subckt dff  Q QB CLK D VDD_esc1 VSS_esc2

        MN10 N$26 bclk- N$23 VSS_esc2 nmos l=0.14u w=0.35u m=1
        MN11 N$23 N$291 VSS_esc2 VSS_esc2 nmos l=0.14u w=0.35u m=1
        MN7 bclk bclk- VSS_esc2 VSS_esc2 nmos l=0.14u w=0.77u m=1
        MN14 Q QB VSS_esc2 VSS_esc2 nmos l=0.14u w=0.77u m=1
        MP14 Q QB VDD_esc1 VDD_esc1 pmos l=0.14u w=1.54u m=1
        MP1 N$2 bclk VDD_esc1 VDD_esc1 pmos l=0.14u w=2.24u m=1
        MP8 N$19 bclk- VDD_esc1 VDD_esc1 pmos l=0.14u w=2.24u m=1
        MP9 N$26 N$8 N$19 VDD_esc1 pmos l=0.14u w=2.24u m=1
        MP10 N$20 N$291 VDD_esc1 VDD_esc1 pmos l=0.14u w=0.35u m=1
        MP11 N$26 bclk N$20 VDD_esc1 pmos l=0.14u w=0.35u m=1
        MP12 N$291 N$26 VDD_esc1 VDD_esc1 pmos l=0.14u w=0.35u m=1
        MN8 N$26 N$8 N$22 VSS_esc2 nmos l=0.14u w=1.19u m=1
        MN9 N$22 bclk VSS_esc2 VSS_esc2 nmos l=0.14u w=1.19u m=1
        MN13 QB N$26 VSS_esc2 VSS_esc2 nmos l=0.14u w=0.77u m=1
        MP6 bclk- CLK VDD_esc1 VDD_esc1 pmos l=0.14u w=1.54u m=1
        MN6 bclk- CLK VSS_esc2 VSS_esc2 nmos l=0.14u w=0.77u m=1
        MP13 QB N$26 VDD_esc1 VDD_esc1 pmos l=0.14u w=1.54u m=1
        MN12 N$291 N$26 VSS_esc2 VSS_esc2 nmos l=0.14u w=0.35u m=1
        MN1 N$8 D N$6 VSS_esc2 nmos l=0.14u w=1.19u m=1
        MN2 N$6 bclk- VSS_esc2 VSS_esc2 nmos l=0.14u w=1.19u m=1
        MN3 N$8 N$249 N$7 VSS_esc2 nmos l=0.14u w=0.35u m=1
        MN5 N$249 N$8 VSS_esc2 VSS_esc2 nmos l=0.14u w=0.35u m=1
        MN4 N$7 bclk VSS_esc2 VSS_esc2 nmos l=0.14u w=0.35u m=1
        MP7 bclk bclk- VDD_esc1 VDD_esc1 pmos l=0.14u w=1.54u m=1
        MP2 N$8 D N$2 VDD_esc1 pmos l=0.14u w=2.24u m=1
        MP3 N$4 bclk- VDD_esc1 VDD_esc1 pmos l=0.14u w=0.35u m=1
        MP4 N$8 N$249 N$4 VDD_esc1 pmos l=0.14u w=0.35u m=1
        MP5 N$249 N$8 VDD_esc1 VDD_esc1 pmos l=0.14u w=0.35u m=1
.ends dff

*
* Component pathname : $GDKGATES/nand02
*
.subckt nand02  Y A0 A1 VDD_esc1 VSS_esc2

        MP1 Y A0 VDD_esc1 VDD_esc1 pmos l=0.14u w=1.05u m=1
        MN1 Y A0 N$5 VSS_esc2 nmos l=0.14u w=0.77u m=1
        MN2 N$5 A1 VSS_esc2 VSS_esc2 nmos l=0.14u w=0.77u m=1
        MP2 Y A1 VDD_esc1 VDD_esc1 pmos l=0.14u w=1.05u m=1
.ends nand02

*
* Component pathname : $GDKGATES/nor03
*
.subckt nor03  Y A0 A1 A2 VDD_esc1 VSS_esc2

        MP3 Y A2 N$3 VDD_esc1 pmos l=0.14u w=1.68u m=1
        MN2 Y A1 VSS_esc2 VSS_esc2 nmos l=0.14u w=0.42u m=1
        MN1 Y A2 VSS_esc2 VSS_esc2 nmos l=0.14u w=0.42u m=1
        MP2 N$3 A1 N$1 VDD_esc1 pmos l=0.14u w=1.68u m=1
        MP1 N$1 A0 VDD_esc1 VDD_esc1 pmos l=0.14u w=1.68u m=1
        MN3 Y A0 VSS_esc2 VSS_esc2 nmos l=0.14u w=0.42u m=1
.ends nor03

*
* Component pathname : $GDKGATES/and03
*
.subckt and03  Y A0 A1 A2 VDD_esc1 VSS_esc2

        MP3 A A2 VDD_esc1 VDD_esc1 pmos l=0.14u w=1.4u m=1
        MN2 A A0 N$214 VSS_esc2 nmos l=0.14u w=1.19u m=1
        MN1 N$215 A2 VSS_esc2 VSS_esc2 nmos l=0.14u w=1.19u m=1
        MN3 N$214 A1 N$215 VSS_esc2 nmos l=0.14u w=1.19u m=1
        MN4 Y A VSS_esc2 VSS_esc2 nmos l=0.14u w=0.35u m=1
        MP2 A A1 VDD_esc1 VDD_esc1 pmos l=0.14u w=1.4u m=1
        MP1 A A0 VDD_esc1 VDD_esc1 pmos l=0.14u w=1.4u m=1
        MP4 Y A VDD_esc1 VDD_esc1 pmos l=0.14u w=0.77u m=1
.ends and03

*
* Component pathname : $GDKGATES/and02
*
.subckt and02  Y A0 A1 VDD_esc1 VSS_esc2

        MN3 Y N$1 VSS_esc2 VSS_esc2 nmos l=0.14u w=0.35u m=1
        MN2 N$6 A1 VSS_esc2 VSS_esc2 nmos l=0.14u w=0.77u m=1
        MN1 N$1 A0 N$6 VSS_esc2 nmos l=0.14u w=0.77u m=1
        MP3 Y N$1 VDD_esc1 VDD_esc1 pmos l=0.14u w=0.77u m=1
        MP2 N$1 A1 VDD_esc1 VDD_esc1 pmos l=0.14u w=1.05u m=1
        MP1 N$1 A0 VDD_esc1 VDD_esc1 pmos l=0.14u w=1.05u m=1
.ends and02

*
* Component pathname : $GDKGATES/dffr
*
.subckt dffr  Q QB CLK D R VDD_esc1 VSS_esc2

        MN17 N$25 bclk- N$27 VSS_esc2 nmos l=0.14u w=0.35u m=1
        MP9 N$29 N$28 VDD_esc1 VDD_esc1 pmos l=0.14u w=0.35u m=1
        MP17 N$27 R N$29 VDD_esc1 pmos l=0.14u w=0.35u m=1
        MP8 N$25 bclk N$27 VDD_esc1 pmos l=0.14u w=0.35u m=1
        MN16 N$27 N$28 VSS_esc2 VSS_esc2 nmos l=0.14u w=0.35u m=1
        MN12 N$14 bclk VSS_esc2 VSS_esc2 nmos l=0.14u w=0.35u m=1
        MN11 N$12 bclk- VSS_esc2 VSS_esc2 nmos l=0.14u w=1.19u m=1
        MN10 N$11 D N$12 VSS_esc2 nmos l=0.14u w=1.19u m=1
        MP12 N$11 D N$10 VDD_esc1 pmos l=0.14u w=2.24u m=1
        MP11 N$10 bclk VDD_esc1 VDD_esc1 pmos l=0.14u w=2.24u m=1
        MP13 N$11 N$16 N$18 VDD_esc1 pmos l=0.14u w=0.35u m=1
        MN13 N$11 N$16 N$14 VSS_esc2 nmos l=0.14u w=0.35u m=1
        MN6 N$21 bclk VSS_esc2 VSS_esc2 nmos l=0.14u w=1.19u m=1
        MP4 Q QB VDD_esc1 VDD_esc1 pmos l=0.14u w=1.54u m=1
        MN4 Q QB VSS_esc2 VSS_esc2 nmos l=0.14u w=0.77u m=1
        MN2 bclk bclk- VSS_esc2 VSS_esc2 nmos l=0.14u w=0.77u m=1
        MN7 N$28 N$25 VSS_esc2 VSS_esc2 nmos l=0.14u w=0.35u m=1
        MN9 N$22 N$16 VSS_esc2 VSS_esc2 nmos l=0.14u w=0.35u m=1
        MP10 N$22 N$16 VDD_esc1 VDD_esc1 pmos l=0.14u w=0.77u m=1
        MP15 N$18 bclk- VDD_esc1 VDD_esc1 pmos l=0.14u w=0.35u m=1
        MP14 N$13 N$11 VDD_esc1 VDD_esc1 pmos l=0.14u w=1.05u m=1
        MP1 bclk- CLK VDD_esc1 VDD_esc1 pmos l=0.14u w=1.54u m=1
        MN5 N$25 N$22 N$21 VSS_esc2 nmos l=0.14u w=1.19u m=1
        MN15 N$16 R VSS_esc2 VSS_esc2 nmos l=0.14u w=0.77u m=1
        MP16 N$16 R N$13 VDD_esc1 pmos l=0.14u w=1.05u m=1
        MP2 bclk bclk- VDD_esc1 VDD_esc1 pmos l=0.14u w=1.54u m=1
        MN1 bclk- CLK VSS_esc2 VSS_esc2 nmos l=0.14u w=0.77u m=1
        MN3 QB N$25 VSS_esc2 VSS_esc2 nmos l=0.14u w=0.77u m=1
        MP3 QB N$25 VDD_esc1 VDD_esc1 pmos l=0.14u w=1.54u m=1
        MN14 N$16 N$11 VSS_esc2 VSS_esc2 nmos l=0.14u w=0.77u m=1
        MP7 N$28 N$25 VDD_esc1 VDD_esc1 pmos l=0.14u w=0.77u m=1
        MP6 N$25 N$22 N$23 VDD_esc1 pmos l=0.14u w=2.24u m=1
        MP5 N$23 bclk- VDD_esc1 VDD_esc1 pmos l=0.14u w=2.24u m=1
        MN8 N$27 R VSS_esc2 VSS_esc2 nmos l=0.14u w=0.35u m=1
.ends dffr

*
* Component pathname : $GDKGATES/aoi21
*
.subckt aoi21  Y A0 A1 B0 VDD_esc1 VSS_esc2

        M_I$11 Y A0 N$2 VSS_esc2 nmos l=0.14u w=0.77u m=1
        M_I$7 Y B0 N$1 VDD_esc1 pmos l=0.14u w=1.19u m=1
        M_I$6 N$1 A1 VDD_esc1 VDD_esc1 pmos l=0.14u w=1.19u m=1
        M_I$5 N$1 A0 VDD_esc1 VDD_esc1 pmos l=0.14u w=1.19u m=1
        M_I$4 Y B0 VSS_esc2 VSS_esc2 nmos l=0.14u w=0.35u m=1
        M_I$12 N$2 A1 VSS_esc2 VSS_esc2 nmos l=0.14u w=0.77u m=1
.ends aoi21

*
* Component pathname : $GDKGATES/nand04
*
.subckt nand04  Y A0 A1 A2 A3 VDD_esc1 VSS_esc2

        MP4 Y A3 VDD_esc1 VDD_esc1 pmos l=0.14u w=1.68u m=1
        MP3 Y A2 VDD_esc1 VDD_esc1 pmos l=0.14u w=1.68u m=1
        MN2 N$2 A3 VSS_esc2 VSS_esc2 nmos l=0.14u w=1.61u m=1
        MN1 N$9 A2 N$2 VSS_esc2 nmos l=0.14u w=1.61u m=1
        MN3 Y A0 N$6 VSS_esc2 nmos l=0.14u w=1.61u m=1
        MP2 Y A1 VDD_esc1 VDD_esc1 pmos l=0.14u w=1.68u m=1
        MP1 Y A0 VDD_esc1 VDD_esc1 pmos l=0.14u w=1.68u m=1
        MN4 N$6 A1 N$9 VSS_esc2 nmos l=0.14u w=1.61u m=1
.ends nand04

*
* Component pathname : $GDKGATES/nand03
*
.subckt nand03  Y A0 A1 A2 VDD_esc1 VSS_esc2

        MP3 Y A2 VDD_esc1 VDD_esc1 pmos l=0.14u w=1.26u m=1
        MN2 Y A0 N$4 VSS_esc2 nmos l=0.14u w=1.19u m=1
        MN1 N$5 A2 VSS_esc2 VSS_esc2 nmos l=0.14u w=1.19u m=1
        MN3 N$4 A1 N$5 VSS_esc2 nmos l=0.14u w=1.19u m=1
        MP2 Y A1 VDD_esc1 VDD_esc1 pmos l=0.14u w=1.26u m=1
        MP1 Y A0 VDD_esc1 VDD_esc1 pmos l=0.14u w=1.26u m=1
.ends nand03

*
* Component pathname : $GDKGATES/inv02
*
.subckt inv02  Y A VDD_esc1 VSS_esc2

        MP1 Y A VDD_esc1 VDD_esc1 pmos l=0.14u w=1.54u m=1
        MN1 Y A VSS_esc2 VSS_esc2 nmos l=0.14u w=0.77u m=1
.ends inv02

*
* Component pathname : $GDKGATES/dffs
*
.subckt dffs  Q QB CLK D S VDD_esc1 VSS_esc2

        MP6 N$11 bclk- VDD_esc1 VDD_esc1 pmos l=0.14u w=2.24u m=1
        MP7 N$12 N$250 N$11 VDD_esc1 pmos l=0.14u w=2.24u m=1
        MP8 N$27 N$12 VDD_esc1 VDD_esc1 pmos l=0.14u w=0.35u m=1
        MN6 N$12 N$250 N$13 VSS_esc2 nmos l=0.14u w=1.19u m=1
        MP12 N$261 D N$17 VDD_esc1 pmos l=0.14u w=2.24u m=1
        MP4 Q QB VDD_esc1 VDD_esc1 pmos l=0.14u w=1.54u m=1
        MP11 N$17 bclk VDD_esc1 VDD_esc1 pmos l=0.14u w=2.24u m=1
        MN2 bclk bclk- VSS_esc2 VSS_esc2 nmos l=0.14u w=0.77u m=1
        MN4 Q QB VSS_esc2 VSS_esc2 nmos l=0.14u w=0.77u m=1
        MN17 N$28 S N$31 VSS_esc2 nmos l=0.14u w=0.35u m=1
        MP15 N$21 bclk- VDD_esc1 VDD_esc1 pmos l=0.14u w=0.35u m=1
        MN13 N$22 bclk VSS_esc2 VSS_esc2 nmos l=0.14u w=0.35u m=1
        MP14 N$26 N$261 VDD_esc1 VDD_esc1 pmos l=0.14u w=1.05u m=1
        MP13 N$261 N$26 N$21 VDD_esc1 pmos l=0.14u w=0.35u m=1
        MP16 N$26 S VDD_esc1 VDD_esc1 pmos l=0.14u w=1.05u m=1
        MN16 N$26 S N$23 VSS_esc2 nmos l=0.14u w=0.77u m=1
        MN3 QB N$12 VSS_esc2 VSS_esc2 nmos l=0.14u w=0.77u m=1
        MP3 QB N$12 VDD_esc1 VDD_esc1 pmos l=0.14u w=1.54u m=1
        MP9 N$12 bclk N$28 VDD_esc1 pmos l=0.14u w=0.35u m=1
        MN10 N$12 bclk- N$28 VSS_esc2 nmos l=0.14u w=0.35u m=1
        MN14 N$261 N$26 N$22 VSS_esc2 nmos l=0.14u w=0.35u m=1
        MN9 N$31 N$27 VSS_esc2 VSS_esc2 nmos l=0.14u w=0.35u m=1
        MN15 N$23 N$261 VSS_esc2 VSS_esc2 nmos l=0.14u w=0.77u m=1
        MN8 N$27 N$12 VSS_esc2 VSS_esc2 nmos l=0.14u w=0.35u m=1
        MN7 N$13 bclk VSS_esc2 VSS_esc2 nmos l=0.14u w=1.19u m=1
        MP17 N$28 N$27 VDD_esc1 VDD_esc1 pmos l=0.14u w=0.35u m=1
        MN11 N$261 D N$19 VSS_esc2 nmos l=0.14u w=1.19u m=1
        MN5 N$250 N$26 VSS_esc2 VSS_esc2 nmos l=0.14u w=0.77u m=1
        MP5 N$250 N$26 VDD_esc1 VDD_esc1 pmos l=0.14u w=1.54u m=1
        MP2 bclk bclk- VDD_esc1 VDD_esc1 pmos l=0.14u w=1.54u m=1
        MN1 bclk- CLK VSS_esc2 VSS_esc2 nmos l=0.14u w=0.77u m=1
        MN12 N$19 bclk- VSS_esc2 VSS_esc2 nmos l=0.14u w=1.19u m=1
        MP1 bclk- CLK VDD_esc1 VDD_esc1 pmos l=0.14u w=1.54u m=1
        MP10 N$28 S VDD_esc1 VDD_esc1 pmos l=0.14u w=0.35u m=1
.ends dffs

*
* Component pathname : $GDKGATES/or02
*
.subckt or02  Y A0 A1 VDD_esc1 VSS_esc2

        MP4 Y N$5 VDD_esc1 VDD_esc1 pmos l=0.14u w=0.77u m=1
        MN2 N$5 A0 VSS_esc2 VSS_esc2 nmos l=0.14u w=0.35u m=1
        MN1 N$5 A1 VSS_esc2 VSS_esc2 nmos l=0.14u w=0.35u m=1
        MP3 N$5 A1 N$1 VDD_esc1 pmos l=0.14u w=1.19u m=1
        MP2 N$1 A0 VDD_esc1 VDD_esc1 pmos l=0.14u w=1.19u m=1
        MN3 Y N$5 VSS_esc2 VSS_esc2 nmos l=0.14u w=0.35u m=1
.ends or02

*
* Component pathname : $GDKGATES/aoi321
*
.subckt aoi321  Y A0 A1 A2 B0 B1 C0 VDD_esc1 VSS_esc2

        MN6 Y C0 VSS_esc2 VSS_esc2 nmos l=0.14u w=0.35u m=1
        MN5 N$7 B1 VSS_esc2 VSS_esc2 nmos l=0.14u w=0.77u m=1
        MN4 Y B0 N$7 VSS_esc2 nmos l=0.14u w=0.77u m=1
        MN3 N$6 A2 VSS_esc2 VSS_esc2 nmos l=0.14u w=1.33u m=1
        MN2 N$5 A1 N$6 VSS_esc2 nmos l=0.14u w=1.33u m=1
        MN1 Y A0 N$5 VSS_esc2 nmos l=0.14u w=1.33u m=1
        MP6 Y C0 N$3 VDD_esc1 pmos l=0.14u w=1.61u m=1
        MP5 N$3 B0 N$13 VDD_esc1 pmos l=0.14u w=1.61u m=1
        MP4 N$3 B1 N$13 VDD_esc1 pmos l=0.14u w=1.61u m=1
        MP3 N$13 A0 VDD_esc1 VDD_esc1 pmos l=0.14u w=1.82u m=1
        MP2 N$13 A1 VDD_esc1 VDD_esc1 pmos l=0.14u w=1.82u m=1
        MP1 N$13 A2 VDD_esc1 VDD_esc1 pmos l=0.14u w=1.82u m=1
.ends aoi321

*
* Component pathname : $GDKGATES/aoi32
*
.subckt aoi32  Y A0 A1 A2 B0 B1 VDD_esc1 VSS_esc2

        MN4 Y B0 N$6 VSS_esc2 nmos l=0.14u w=0.77u m=1
        MN3 N$5 A2 VSS_esc2 VSS_esc2 nmos l=0.14u w=1.19u m=1
        MN2 N$4 A1 N$5 VSS_esc2 nmos l=0.14u w=1.19u m=1
        MN1 Y A0 N$4 VSS_esc2 nmos l=0.14u w=1.19u m=1
        MP5 Y B0 N$11 VDD_esc1 pmos l=0.14u w=1.19u m=1
        MP4 Y B1 N$11 VDD_esc1 pmos l=0.14u w=1.19u m=1
        MP3 N$11 A0 VDD_esc1 VDD_esc1 pmos l=0.14u w=1.19u m=1
        MP2 N$11 A1 VDD_esc1 VDD_esc1 pmos l=0.14u w=1.19u m=1
        MP1 N$11 A2 VDD_esc1 VDD_esc1 pmos l=0.14u w=1.19u m=1
        MN5 N$6 B1 VSS_esc2 VSS_esc2 nmos l=0.14u w=0.77u m=1
.ends aoi32

*
* Component pathname : $GDKGATES/nor04
*
.subckt nor04  Y A0 A1 A2 A3 VDD_esc1 VSS_esc2

        MP4 Y A3 N$6 VDD_esc1 pmos l=0.14u w=2.24u m=1
        MN3 Y A0 VSS_esc2 VSS_esc2 nmos l=0.14u w=0.77u m=1
        MP3 N$6 A2 N$3 VDD_esc1 pmos l=0.14u w=2.24u m=1
        MN4 Y A3 VSS_esc2 VSS_esc2 nmos l=0.14u w=0.77u m=1
        MN2 Y A1 VSS_esc2 VSS_esc2 nmos l=0.14u w=0.77u m=1
        MN1 Y A2 VSS_esc2 VSS_esc2 nmos l=0.14u w=0.77u m=1
        MP2 N$3 A1 N$1 VDD_esc1 pmos l=0.14u w=2.24u m=1
        MP1 N$1 A0 VDD_esc1 VDD_esc1 pmos l=0.14u w=2.24u m=1
.ends nor04

*
* Component pathname : $GDKGATES/oai21
*
.subckt oai21  Y A0 A1 B0 VDD_esc1 VSS_esc2

        MN1 Y A0 N$7 VSS_esc2 nmos l=0.14u w=0.77u m=1
        MP3 Y B0 VDD_esc1 VDD_esc1 pmos l=0.14u w=1.05u m=1
        MP2 Y A1 N$6 VDD_esc1 pmos l=0.14u w=2.03u m=1
        MP1 N$6 A0 VDD_esc1 VDD_esc1 pmos l=0.14u w=2.03u m=1
        MN2 Y A1 N$7 VSS_esc2 nmos l=0.14u w=0.77u m=1
        MN3 N$7 B0 VSS_esc2 VSS_esc2 nmos l=0.14u w=0.77u m=1
.ends oai21

*
* Component pathname : $GDKGATES/ao22
*
.subckt ao22  Y A0 A1 B0 B1 VDD_esc1 VSS_esc2

        MN4 N$13 B0 N$2 VSS_esc2 nmos l=0.14u w=0.77u m=1
        MP4 N$13 B1 N$6 VDD_esc1 pmos l=0.14u w=1.19u m=1
        MN2 N$1 A1 VSS_esc2 VSS_esc2 nmos l=0.14u w=0.77u m=1
        MN1 N$13 A0 N$1 VSS_esc2 nmos l=0.14u w=0.77u m=1
        MP5 Y N$13 VDD_esc1 VDD_esc1 pmos l=0.14u w=0.77u m=1
        MP3 N$13 B0 N$6 VDD_esc1 pmos l=0.14u w=1.19u m=1
        MP2 N$6 A1 VDD_esc1 VDD_esc1 pmos l=0.14u w=1.19u m=1
        MP1 N$6 A0 VDD_esc1 VDD_esc1 pmos l=0.14u w=1.19u m=1
        MN3 N$2 B1 VSS_esc2 VSS_esc2 nmos l=0.14u w=0.77u m=1
        MN5 Y N$13 VSS_esc2 VSS_esc2 nmos l=0.14u w=0.35u m=1
.ends ao22

*
* Component pathname : $GDKGATES/and04
*
.subckt and04  Y A0 A1 A2 A3 VDD_esc1 VSS_esc2

        MN4 N$6 A1 N$7 VSS_esc2 nmos l=0.14u w=1.61u m=1
        MN3 N$11 A0 N$6 VSS_esc2 nmos l=0.14u w=1.61u m=1
        MP4 N$11 A3 VDD_esc1 VDD_esc1 pmos l=0.14u w=1.75u m=1
        MP3 N$11 A2 VDD_esc1 VDD_esc1 pmos l=0.14u w=1.75u m=1
        MN2 N$2 A3 VSS_esc2 VSS_esc2 nmos l=0.14u w=1.61u m=1
        MN1 N$7 A2 N$2 VSS_esc2 nmos l=0.14u w=1.61u m=1
        MN5 Y N$11 VSS_esc2 VSS_esc2 nmos l=0.14u w=0.35u m=1
        MP2 N$11 A1 VDD_esc1 VDD_esc1 pmos l=0.14u w=1.75u m=1
        MP1 N$11 A0 VDD_esc1 VDD_esc1 pmos l=0.14u w=1.75u m=1
        MP5 Y N$11 VDD_esc1 VDD_esc1 pmos l=0.14u w=0.77u m=1
.ends and04

*
* Component pathname : $PYXIS_SPT/digicdesign/MAC_BIST
*
.subckt MAC_BIST  multiplierOut[31] multiplierOut[30] multiplierOut[29]
+ multiplierOut[28] multiplierOut[27] multiplierOut[26] multiplierOut[25]
+ multiplierOut[24] multiplierOut[23] multiplierOut[22] multiplierOut[21]
+ multiplierOut[20] multiplierOut[19] multiplierOut[18] multiplierOut[17]
+ multiplierOut[16] multiplierOut[15] multiplierOut[14] multiplierOut[13]
+ multiplierOut[12] multiplierOut[11] multiplierOut[10] multiplierOut[9]
+ multiplierOut[8] multiplierOut[7] multiplierOut[6] multiplierOut[5] multiplierOut[4]
+ multiplierOut[3] multiplierOut[2] multiplierOut[1] multiplierOut[0] tst_output_flag
+ A[15] A[14] A[13] A[12] A[11] A[10] A[9] A[8] A[7] A[6] A[5] A[4] A[3]
+ A[2] A[1] A[0] B[15] B[14] B[13] B[12] B[11] B[10] B[9] B[8] B[7] B[6]
+ B[5] B[4] B[3] B[2] B[1] B[0] clk rst tst_mode

        X_ix2361 nx2360 rst nx3358 VDD VSS nor02
        X_ix2405 nx2404 rst nx3386 VDD VSS nor02
        X_ix3377 nx3376 nx3369 nx1690 VDD VSS xor2
        X_ix3363 nx3362 nx3355 nx1704 VDD VSS xor2
        X_ix3410 nx3409 nx3400 nx1662 VDD VSS xor2
        X_ix3392 nx3391 nx3383 nx1676 VDD VSS xor2
        X_ix2465 nx2464 nx3421 nx3424 nx3434 nx3416 VDD VSS oai22
        X_ix2509 nx2508 nx3446 nx3449 nx3459 nx3441 VDD VSS oai22
        X_ix2377 nx2376 nx3360 nx3362 nx3374 nx3355 VDD VSS oai22
        X_ix2421 nx2420 nx3388 nx3391 nx3405 nx3383 VDD VSS oai22
        X_ix2471 nx2470 rst nx2466 VDD VSS nor02ii
        X_ix2383 nx2382 rst nx2378 VDD VSS nor02ii
        X_ix2427 nx2426 rst nx2422 VDD VSS nor02ii
        X_ix3435 nx3434 nx1648 VDD VSS inv01
        X_ix2479 nx1203 nx3436 VDD VSS inv01
        X_ix3460 nx3459 nx1612 VDD VSS inv01
        X_ix2695 nx2694 nx3624 instance0_MISR_misrreg_23 VDD VSS xnor2
        X_ix2689 nx2688 nx3629 instance0_MISR_misrreg_24 VDD VSS xnor2
        X_ix3420 nx3419 nx3421 nx3424 VDD VSS xnor2
        X_ix2467 nx2466 nx2464 nx3436 VDD VSS xnor2
        X_ix3445 nx3444 nx3446 nx3449 VDD VSS xnor2
        X_ix2379 nx2378 nx2376 nx3376 VDD VSS xnor2
        X_ix3359 nx3358 nx3360 nx3362 VDD VSS xnor2
        X_ix2423 nx2422 nx2420 nx3409 VDD VSS xnor2
        X_ix3387 nx3386 nx3388 nx3391 VDD VSS xnor2
        X_ix1654 nx1653 nx2730 instance0_MISR_misrreg_16 nx3933 VDD VSS mux21
        X_ix1644 nx1643 nx2724 instance0_MISR_misrreg_17 nx3933 VDD VSS mux21
        X_ix1634 nx1633 nx2718 instance0_MISR_misrreg_18 nx3933 VDD VSS mux21
        X_ix1624 nx1623 nx2712 instance0_MISR_misrreg_19 nx3933 VDD VSS mux21
        X_ix1614 nx1613 nx2706 instance0_MISR_misrreg_20 nx3933 VDD VSS mux21
        X_ix2707 nx2706 nx3614 instance0_MISR_misrreg_21 VDD VSS xnor2
        X_ix2701 nx2700 nx3619 instance0_MISR_misrreg_22 VDD VSS xnor2
        X_ix1604 nx1603 nx2700 instance0_MISR_misrreg_21 nx3933 VDD VSS mux21
        X_ix1594 nx1593 nx2694 instance0_MISR_misrreg_22 nx3933 VDD VSS mux21
        X_ix1584 nx1583 nx2688 instance0_MISR_misrreg_23 nx3933 VDD VSS mux21
        X_ix3447 nx3446 nx1630 mac_out_25 nx2464 nx1203 VDD VSS aoi22
        X_ix3389 nx3388 nx1690 mac_out_21 nx2376 nx1195 VDD VSS aoi22
        X_ix3422 nx3421 nx1662 mac_out_23 nx2420 nx1199 VDD VSS aoi22
        X_max_inst_instance3_RegC_reg_output_24 mac_out_24 nx3416 clk nx2448
+ VDD VSS dff
        X_max_inst_instance3_RegC_reg_output_25 mac_out_25 nx3429 clk nx2470
+ VDD VSS dff
        X_max_inst_instance3_RegC_reg_output_26 mac_out_26 nx3441 clk nx2492
+ VDD VSS dff
        X_max_inst_instance3_RegC_reg_output_21 mac_out_21 nx3369 clk nx2382
+ VDD VSS dff
        X_max_inst_instance3_RegC_reg_output_20 mac_out_20 nx3355 clk nx2360
+ VDD VSS dff
        X_max_inst_instance3_RegC_reg_output_23 mac_out_23 nx3400 clk nx2426
+ VDD VSS dff
        X_max_inst_instance3_RegC_reg_output_22 mac_out_22 nx3383 clk nx2404
+ VDD VSS dff
        X_ix2449 nx2448 rst nx3419 VDD VSS nor02
        X_ix1649 nx1648 nx3927 nx3185 VDD VSS nor02
        X_ix2493 nx2492 rst nx3444 VDD VSS nor02
        X_ix3437 nx3436 nx3429 nx1630 VDD VSS xor2
        X_ix3450 nx3449 nx3441 nx1612 VDD VSS xor2
        X_ix2391 nx1195 nx3376 VDD VSS inv01
        X_ix3375 nx3374 nx1704 VDD VSS inv01
        X_ix2435 nx1199 nx3409 VDD VSS inv01
        X_ix3406 nx3405 nx1676 VDD VSS inv01
        X_ix3595 nx3594 tst_mode mac_out_15 VDD VSS nand02
        X_ix3600 nx3599 tst_mode mac_out_16 VDD VSS nand02
        X_ix3605 nx3604 tst_mode mac_out_17 VDD VSS nand02
        X_ix3610 nx3609 tst_mode mac_out_18 VDD VSS nand02
        X_ix3615 nx3614 tst_mode mac_out_19 VDD VSS nand02
        X_ix3620 nx3619 tst_mode mac_out_20 VDD VSS nand02
        X_ix3625 nx3624 tst_mode mac_out_21 VDD VSS nand02
        X_ix3630 nx3629 tst_mode mac_out_22 VDD VSS nand02
        X_ix2731 nx2730 nx3594 instance0_MISR_misrreg_17 VDD VSS xnor2
        X_ix2725 nx2724 nx3599 instance0_MISR_misrreg_18 VDD VSS xnor2
        X_ix2719 nx2718 nx3604 instance0_MISR_misrreg_19 VDD VSS xnor2
        X_ix2713 nx2712 nx3609 instance0_MISR_misrreg_20 VDD VSS xnor2
        X_ix3425 nx3424 nx3416 nx1648 VDD VSS xor2
        X_ix3242 nx3241 max_inst_YA_15 nx464 VDD VSS nand02
        X_ix3244 nx3243 max_inst_YA_14 nx388 VDD VSS nand02
        X_ix3168 nx3167 max_inst_YA_13 nx464 VDD VSS nand02
        X_ix3170 nx3169 max_inst_YA_12 nx388 VDD VSS nand02
        X_ix3210 nx3209 max_inst_YA_14 nx464 VDD VSS nand02
        X_ix3212 nx3211 max_inst_YA_13 nx388 VDD VSS nand02
        X_ix3367 nx3366 nx2313 nx1636 VDD VSS nand02
        X_ix3381 nx3380 nx2313 nx1618 VDD VSS nand02
        X_ix3103 nx3102 max_inst_YA_14 nx902 VDD VSS nand02
        X_ix3108 nx3107 max_inst_YA_13 nx826 VDD VSS nand02
        X_ix3200 nx3199 max_inst_YA_15 nx826 VDD VSS nand02
        X_ix3270 nx3269 max_inst_YA_15 nx388 VDD VSS nand02
        X_ix3150 nx3149 max_inst_YA_15 nx902 VDD VSS nand02
        X_ix3158 nx3157 max_inst_YA_14 nx826 VDD VSS nand02
        X_ix3240 nx3239 nx3241 nx3243 VDD VSS xnor2
        X_ix3236 nx3235 nx3237 nx3239 VDD VSS xnor2
        X_ix3166 nx3165 nx3167 nx3169 VDD VSS xnor2
        X_ix1637 nx1636 nx1556 nx3191 VDD VSS xnor2
        X_ix1619 nx1618 nx1560 nx3231 VDD VSS xnor2
        X_ix1593 nx1592 nx1396 nx3093 VDD VSS xnor2
        X_ix3097 nx3096 nx3098 nx3100 VDD VSS xnor2
        X_ix3094 nx3093 nx1110 nx764 VDD VSS xnor2
        X_ix1457 nx1456 nx1400 nx3138 VDD VSS xnor2
        X_ix3144 nx3143 nx3145 nx3147 VDD VSS xnor2
        X_ix3140 nx3138 nx1432 nx1452 VDD VSS xnor2
        X_ix3101 nx3100 nx3102 nx3107 VDD VSS xnor2
        X_ix3148 nx3147 nx3149 nx3157 VDD VSS xnor2
        X_ix3268 nx3267 nx3237 nx3243 nx3239 VDD VSS mux21
        X_ix3206 nx3205 nx3163 nx3169 nx3165 VDD VSS mux21
        X_ix3238 nx3237 nx3205 nx3211 nx3207 VDD VSS mux21
        X_ix1561 nx1560 nx1556 nx1536 nx3191 VDD VSS mux21
        X_ix1565 nx1564 nx1560 nx1508 nx3231 VDD VSS mux21
        X_ix1401 nx1400 nx1396 nx764 nx3093 VDD VSS mux21
        X_ix1557 nx1556 nx1400 nx1452 nx3138 VDD VSS mux21
        X_ix3146 nx3145 nx3098 nx3107 nx3100 VDD VSS mux21
        X_ix3198 nx3197 nx3145 nx3157 nx3147 VDD VSS mux21
        X_ix1525 nx1524 nx3197 rst nx3199 VDD VSS nor03
        X_ix1509 nx1508 rst nx3235 VDD VSS nor02
        X_ix1453 nx1452 rst nx3161 VDD VSS nor02
        X_ix1537 nx1536 rst nx3202 VDD VSS nor02
        X_ix1543 nx1542 rst nx3194 VDD VSS nor02
        X_ix1111 nx1110 rst nx3096 VDD VSS nor02
        X_ix1433 nx1432 rst nx3143 VDD VSS nor02
        X_ix3162 nx3161 nx3163 nx3165 VDD VSS xnor2
        X_ix3208 nx3207 nx3209 nx3211 VDD VSS xnor2
        X_ix3204 nx3202 nx3205 nx3207 VDD VSS xnor2
        X_ix3232 nx3231 nx1524 nx1508 VDD VSS xnor2
        X_ix3196 nx3194 nx3197 nx3199 VDD VSS xnor2
        X_ix3192 nx3191 nx1542 nx1536 VDD VSS xnor2
        X_ix103 nx3669 nx3657 instance0_MISR_cntr_5 instance0_MISR_cntr_6
+ VDD VSS and03
        X_ix3675 nx3674 nx3687 nx3676 VDD VSS and02
        X_reg_instance0_MISR_cntr_4 instance0_MISR_cntr_4 nx3687 clk nx56
+ rst VDD VSS dffr
        X_reg_instance0_MISR_cntr_2 instance0_MISR_cntr_2 nx3706 clk nx28
+ rst VDD VSS dffr
        X_reg_instance0_MISR_cntr_3 instance0_MISR_cntr_3 nx3682 clk nx42
+ rst VDD VSS dffr
        X_ix29 nx28 nx3661 nx3706 nx3708 VDD VSS aoi21
        X_ix43 nx42 nx3680 nx3682 nx3684 VDD VSS aoi21
        X_ix3677 nx3676 instance0_MISR_cntr_3 instance0_MISR_cntr_2 instance0_MISR_cntr_1
+ instance0_MISR_cntr_0 VDD VSS nand04
        X_ix81 nx80 nx3931 nx78 VDD VSS nor02ii
        X_ix63 nx1153 nx3676 instance0_MISR_cntr_4 VDD VSS nor02ii
        X_ix77 nx1155 nx3701 VDD VSS inv01
        X_ix21 nx1149 nx3661 VDD VSS inv01
        X_ix3702 nx3701 instance0_MISR_cntr_5 nx1153 VDD VSS nand02
        X_ix3662 nx3661 instance0_MISR_cntr_1 instance0_MISR_cntr_0 VDD
+ VSS nand02
        X_ix3709 nx3708 nx3893 nx3680 VDD VSS nand02
        X_ix3685 nx3684 nx3893 nx3676 VDD VSS nand02
        X_ix3118 nx3117 max_inst_YA_12 nx3919 VDD VSS nand02
        X_ix3120 nx3119 max_inst_YA_11 nx388 VDD VSS nand02
        X_ix3026 nx3025 max_inst_YA_10 nx3919 VDD VSS nand02
        X_ix3028 nx3027 max_inst_YA_9 nx388 VDD VSS nand02
        X_ix3072 nx3071 max_inst_YA_11 nx3919 VDD VSS nand02
        X_ix3074 nx3073 max_inst_YA_10 nx388 VDD VSS nand02
        X_ix3056 nx3055 max_inst_YA_13 nx3921 VDD VSS nand02
        X_ix3063 nx3062 max_inst_YA_12 nx826 VDD VSS nand02
        X_ix2964 nx2963 max_inst_YA_11 nx3921 VDD VSS nand02
        X_ix2970 nx2968 max_inst_YA_10 nx826 VDD VSS nand02
        X_ix3012 nx3011 max_inst_YA_12 nx3921 VDD VSS nand02
        X_ix3017 nx3016 max_inst_YA_11 nx826 VDD VSS nand02
        X_ix79 nx78 instance0_MISR_cntr_6 nx3701 VDD VSS xnor2
        X_ix3116 nx3115 nx3117 nx3119 VDD VSS xnor2
        X_ix3112 nx3111 nx3113 nx3115 VDD VSS xnor2
        X_ix3024 nx3023 nx3025 nx3027 VDD VSS xnor2
        X_ix3020 nx3019 nx3021 nx3023 VDD VSS xnor2
        X_ix3066 nx3065 nx3067 nx3069 VDD VSS xnor2
        X_ix1633 nx1632 nx1388 nx3001 VDD VSS xnor2
        X_ix3006 nx3005 nx3007 nx3009 VDD VSS xnor2
        X_ix3002 nx3001 nx1146 nx1140 VDD VSS xnor2
        X_ix1615 nx1614 nx1392 nx3046 VDD VSS xnor2
        X_ix3050 nx3049 nx3051 nx3053 VDD VSS xnor2
        X_ix3047 nx3046 nx1128 nx1122 VDD VSS xnor2
        X_ix3054 nx3053 nx3055 nx3062 VDD VSS xnor2
        X_ix2962 nx2961 nx2963 nx2968 VDD VSS xnor2
        X_ix3010 nx3009 nx3011 nx3016 VDD VSS xnor2
        X_ix3164 nx3163 nx3113 nx3119 nx3115 VDD VSS mux21
        X_ix3068 nx3067 nx3021 nx3027 nx3023 VDD VSS mux21
        X_ix3114 nx3113 nx3067 nx3073 nx3069 VDD VSS mux21
        X_ix1393 nx1392 nx1388 nx1140 nx3001 VDD VSS mux21
        X_ix1397 nx1396 nx1392 nx1122 nx3046 VDD VSS mux21
        X_ix3099 nx3098 nx3051 nx3062 nx3053 VDD VSS mux21
        X_ix3008 nx3007 nx2959 nx2968 nx2961 VDD VSS mux21
        X_ix3052 nx3051 nx3007 nx3016 nx3009 VDD VSS mux21
        X_ix95 nx3657 nx3706 nx3687 nx3682 VDD VSS nand03