* File: 4bitripplecarry.pex.netlist.pex
* Created: Tue Oct 22 23:57:51 2019
* Program "Calibre xRC"
* Version "v2013.4_26.18"
* Nominal Temperature: 27C
* Circuit Temperature: 27C
* 
.subckt PM_4BITRIPPLECARRY_X0.8 1 2
c0 16 0 0.20204f
c1 13 0 0.055304f
c2 12 0 0.641714f
c3 9 0 0.202096f
r4 20 26 18.6721
r5 14 16 0.2656
r6 12 14 0.0456946
r7 12 13 0.710154
r8 7 13 0.0460268
r9 7 9 0.28
r10 6 26 0.315387
r11 6 24 2.53514
r12 6 16 15.61
r13 6 9 15.61
r14 5 20 20.3197
r15 4 5 3.1796
r16 3 24 0.895844
r17 2 4 3.76692
r18 1 3 3.74394
.ends

.subckt PM_4BITRIPPLECARRY_X0.9 5 9 13 17 19 23
c0 113 0 0.29308f
c1 89 0 0.246742f
c2 75 0 0.254773f
c3 71 0 0.250613f
c4 70 0 1.84287f
c5 68 0 0.110893f
c6 67 0 0.167442f
c7 64 0 1.59417f
c8 59 0 0.241748f
c9 58 0 0.0401279f
c10 57 0 0.030238f
c11 54 0 0.251237f
c12 51 0 0.027888f
c13 49 0 0.315591f
c14 48 0 0.0324166f
c15 36 0 0.208125f
c16 34 0 0.30428f
c17 32 0 0.0953925f
c18 29 0 0.166f
c19 28 0 0.166f
c20 27 0 0.157341f
c21 26 0 0.18769f
c22 17 0 0.376634f
c23 13 0 0.784931f
c24 9 0 0.578904f
c25 5 0 1.02521f
r26 74 75 0.68
r27 70 71 0.68
r28 68 70 1.91109
r29 67 74 0.0199312
r30 66 68 0.0457612
r31 66 67 0.0702158
r32 64 74 0.025689
r33 64 65 1.65778
r34 61 62 0.68
r35 59 65 0.08
r36 59 61 0.100593
r37 54 96 0.152615
r38 51 58 0.04
r39 49 62 0.0721478
r40 49 58 0.0626087
r41 48 62 0.0823519
r42 48 57 0.0510145
r43 44 89 0.08
r44 41 57 0.0404804
r45 37 113 0.185412
r46 36 39 0.126227
r47 36 37 0.000139544
r48 34 109 0.240842
r49 32 34 0.0459221
r50 29 71 0.145934
r51 29 113 0.68
r52 29 85 10.0475
r53 29 83 9.79752
r54 29 39 11.07
r55 28 75 0.145934
r56 28 109 0.68
r57 28 81 10.0475
r58 28 79 9.79752
r59 28 32 11.07
r60 27 96 15.53
r61 27 51 0.157778
r62 27 54 0.68
r63 26 89 15.61
r64 26 41 0.207568
r65 26 44 0.68
r66 23 27 2.43204
r67 19 26 3.56739
r68 17 85 86.1538
r69 13 83 228.462
r70 9 81 116.154
r71 5 79 243.462
.ends

.subckt PM_4BITRIPPLECARRY_X0.11 1 2
c0 22 0 0.354008f
c1 19 0 0.178143f
c2 15 0 1.27324f
c3 12 0 0.177564f
r4 30 31 2.71635
r5 24 31 10.5443
r6 17 19 0.137971
r7 16 22 0.0338756
r8 15 17 0.0447246
r9 15 16 1.36222
r10 10 22 0.00880368
r11 10 12 0.09
r12 7 30 2.00785
r13 7 19 15.61
r14 7 12 15.61
r15 6 24 10.5443
r16 3 7 1.68984
r17 2 6 7.0809
r18 1 3 3.7443
.ends

.subckt PM_4BITRIPPLECARRY_X0.12 4 8 10 14
c0 63 0 0.207883f
c1 53 0 0.113093f
c2 51 0 0.220072f
c3 47 0 0.252862f
c4 46 0 1.11389f
c5 41 0 0.033272f
c6 37 0 0.254255f
c7 34 0 0.027888f
c8 26 0 0.304432f
c9 24 0 0.0953925f
c10 21 0 0.166f
c11 20 0 0.15788f
c12 19 0 0.202551f
c13 8 0 0.376634f
c14 4 0 0.785942f
r15 55 60 13.2462
r16 50 53 0.0641495
r17 50 51 0.68
r18 46 53 1.154
r19 46 47 0.68
r20 43 51 0.144928
r21 41 51 0.193623
r22 37 70 0.148732
r23 34 43 0.04
r24 31 63 0.0869565
r25 28 41 0.0404804
r26 26 83 0.240842
r27 24 26 0.0459221
r28 21 47 0.145934
r29 21 83 0.68
r30 21 59 10.0475
r31 21 57 9.79752
r32 21 24 11.07
r33 20 70 15.53
r34 20 34 0.157778
r35 20 37 0.68
r36 19 60 6.23772
r37 19 63 15.61
r38 19 28 0.207568
r39 19 31 0.68
r40 15 20 2.07748
r41 14 15 4.33834
r42 12 55 13.2243
r43 11 12 5.04262
r44 10 11 3.76118
r45 8 59 86.1538
r46 4 57 228.462
.ends

.subckt PM_4BITRIPPLECARRY_X0.15 3 4
c0 17 0 0.196008f
c1 14 0 0.04964f
c2 13 0 0.585553f
c3 10 0 0.172469f
r4 21 27 4.71577
r5 15 17 0.11619
r6 13 15 0.0498542
r7 13 14 0.993043
r8 8 14 0.0453646
r9 8 10 0.176842
r10 7 27 5.48146
r11 7 20 0.126692
r12 7 17 15.53
r13 7 10 15.53
r14 6 21 9.78346
r15 5 6 4.1065
r16 4 5 4.10124
r17 3 20 1.59069
.ends

.subckt PM_4BITRIPPLECARRY_X0.29 3 4
c0 41 0 0.721325f
c1 25 0 0.338232f
c2 21 0 0.0401015f
c3 18 0 0.308501f
c4 15 0 0.864228f
r5 34 38 7.64377
r6 30 41 0.427789
r7 21 25 0.261873
r8 21 22 0.0398987
r9 18 22 0.223377
r10 15 38 5.27767
r11 15 41 15.53
r12 15 30 0.68
r13 14 15 0.881798
r14 14 25 0.68
r15 14 18 15.53
r16 13 34 7.62969
r17 10 13 4.11766
r18 5 14 2.00025
r19 5 7 2.92232
r20 4 10 4.48492
r21 3 7 0.958146
.ends

.subckt PM_4BITRIPPLECARRY_X1.8 1 2
c0 16 0 0.20204f
c1 13 0 0.055304f
c2 12 0 0.641714f
c3 9 0 0.202096f
r4 20 26 18.6721
r5 14 16 0.2656
r6 12 14 0.0456946
r7 12 13 0.710154
r8 7 13 0.0460268
r9 7 9 0.28
r10 6 26 0.315387
r11 6 24 2.53514
r12 6 16 15.61
r13 6 9 15.61
r14 5 20 20.3197
r15 4 5 3.1796
r16 3 24 0.895844
r17 2 4 3.76692
r18 1 3 3.74394
.ends

.subckt PM_4BITRIPPLECARRY_X1.9 5 9 13 17 19 23
c0 113 0 0.29308f
c1 89 0 0.246742f
c2 75 0 0.254773f
c3 71 0 0.250613f
c4 70 0 1.84287f
c5 68 0 0.110893f
c6 67 0 0.167442f
c7 64 0 1.59417f
c8 59 0 0.241748f
c9 58 0 0.0401279f
c10 57 0 0.030238f
c11 54 0 0.251237f
c12 51 0 0.027888f
c13 49 0 0.315591f
c14 48 0 0.0324166f
c15 36 0 0.208125f
c16 34 0 0.30428f
c17 32 0 0.0953925f
c18 29 0 0.166f
c19 28 0 0.166f
c20 27 0 0.157341f
c21 26 0 0.18769f
c22 17 0 0.376634f
c23 13 0 0.784931f
c24 9 0 0.578904f
c25 5 0 1.02521f
r26 74 75 0.68
r27 70 71 0.68
r28 68 70 1.91109
r29 67 74 0.0199312
r30 66 68 0.0457612
r31 66 67 0.0702158
r32 64 74 0.025689
r33 64 65 1.65778
r34 61 62 0.68
r35 59 65 0.08
r36 59 61 0.100593
r37 54 96 0.152615
r38 51 58 0.04
r39 49 62 0.0721478
r40 49 58 0.0626087
r41 48 62 0.0823519
r42 48 57 0.0510145
r43 44 89 0.08
r44 41 57 0.0404804
r45 37 113 0.185412
r46 36 39 0.126227
r47 36 37 0.000139544
r48 34 109 0.240842
r49 32 34 0.0459221
r50 29 71 0.145934
r51 29 113 0.68
r52 29 85 10.0475
r53 29 83 9.79752
r54 29 39 11.07
r55 28 75 0.145934
r56 28 109 0.68
r57 28 81 10.0475
r58 28 79 9.79752
r59 28 32 11.07
r60 27 96 15.53
r61 27 51 0.157778
r62 27 54 0.68
r63 26 89 15.61
r64 26 41 0.207568
r65 26 44 0.68
r66 23 27 2.43204
r67 19 26 3.56739
r68 17 85 86.1538
r69 13 83 228.462
r70 9 81 116.154
r71 5 79 243.462
.ends

.subckt PM_4BITRIPPLECARRY_X1.11 1 2
c0 22 0 0.354008f
c1 19 0 0.178143f
c2 15 0 1.27324f
c3 12 0 0.177564f
r4 30 31 2.71635
r5 24 31 10.5443
r6 17 19 0.137971
r7 16 22 0.0338756
r8 15 17 0.0447246
r9 15 16 1.36222
r10 10 22 0.00880368
r11 10 12 0.09
r12 7 30 2.00785
r13 7 19 15.61
r14 7 12 15.61
r15 6 24 10.5443
r16 3 7 1.68984
r17 2 6 7.0809
r18 1 3 3.7443
.ends

.subckt PM_4BITRIPPLECARRY_X1.12 4 8 10 14
c0 63 0 0.207883f
c1 53 0 0.113093f
c2 51 0 0.220072f
c3 47 0 0.252862f
c4 46 0 1.11389f
c5 41 0 0.033272f
c6 37 0 0.254255f
c7 34 0 0.027888f
c8 26 0 0.304432f
c9 24 0 0.0953925f
c10 21 0 0.166f
c11 20 0 0.15788f
c12 19 0 0.202551f
c13 8 0 0.376634f
c14 4 0 0.785942f
r15 55 60 13.2462
r16 50 53 0.0641495
r17 50 51 0.68
r18 46 53 1.154
r19 46 47 0.68
r20 43 51 0.144928
r21 41 51 0.193623
r22 37 70 0.148732
r23 34 43 0.04
r24 31 63 0.0869565
r25 28 41 0.0404804
r26 26 83 0.240842
r27 24 26 0.0459221
r28 21 47 0.145934
r29 21 83 0.68
r30 21 59 10.0475
r31 21 57 9.79752
r32 21 24 11.07
r33 20 70 15.53
r34 20 34 0.157778
r35 20 37 0.68
r36 19 60 6.23772
r37 19 63 15.61
r38 19 28 0.207568
r39 19 31 0.68
r40 15 20 2.07748
r41 14 15 4.33834
r42 12 55 13.2243
r43 11 12 5.04262
r44 10 11 3.76118
r45 8 59 86.1538
r46 4 57 228.462
.ends

.subckt PM_4BITRIPPLECARRY_X1.15 3 4
c0 17 0 0.196008f
c1 14 0 0.04964f
c2 13 0 0.585553f
c3 10 0 0.172469f
r4 21 27 4.71577
r5 15 17 0.11619
r6 13 15 0.0498542
r7 13 14 0.993043
r8 8 14 0.0453646
r9 8 10 0.176842
r10 7 27 5.48146
r11 7 20 0.126692
r12 7 17 15.53
r13 7 10 15.53
r14 6 21 9.78346
r15 5 6 4.1065
r16 4 5 4.10124
r17 3 20 1.59069
.ends

.subckt PM_4BITRIPPLECARRY_X1.29 3 4
c0 41 0 0.721325f
c1 25 0 0.338232f
c2 21 0 0.0401015f
c3 18 0 0.308501f
c4 15 0 0.864228f
r5 34 38 7.64377
r6 30 41 0.427789
r7 21 25 0.261873
r8 21 22 0.0398987
r9 18 22 0.223377
r10 15 38 5.27767
r11 15 41 15.53
r12 15 30 0.68
r13 14 15 0.881798
r14 14 25 0.68
r15 14 18 15.53
r16 13 34 7.62969
r17 10 13 4.11766
r18 5 14 2.00025
r19 5 7 2.92232
r20 4 10 4.48492
r21 3 7 0.958146
.ends

.subckt PM_4BITRIPPLECARRY_X2.8 1 2
c0 16 0 0.20204f
c1 13 0 0.055304f
c2 12 0 0.641714f
c3 9 0 0.202096f
r4 20 26 18.6721
r5 14 16 0.2656
r6 12 14 0.0456946
r7 12 13 0.710154
r8 7 13 0.0460268
r9 7 9 0.28
r10 6 26 0.315387
r11 6 24 2.53514
r12 6 16 15.61
r13 6 9 15.61
r14 5 20 20.3197
r15 4 5 3.1796
r16 3 24 0.895844
r17 2 4 3.76692
r18 1 3 3.74394
.ends

.subckt PM_4BITRIPPLECARRY_X2.9 5 9 13 17 19 23
c0 113 0 0.29308f
c1 89 0 0.246742f
c2 75 0 0.254773f
c3 71 0 0.250613f
c4 70 0 1.84287f
c5 68 0 0.110893f
c6 67 0 0.167442f
c7 64 0 1.59417f
c8 59 0 0.241748f
c9 58 0 0.0401279f
c10 57 0 0.030238f
c11 54 0 0.251237f
c12 51 0 0.027888f
c13 49 0 0.315591f
c14 48 0 0.0324166f
c15 36 0 0.208125f
c16 34 0 0.30428f
c17 32 0 0.0953925f
c18 29 0 0.166f
c19 28 0 0.166f
c20 27 0 0.157341f
c21 26 0 0.18769f
c22 17 0 0.376634f
c23 13 0 0.784931f
c24 9 0 0.578904f
c25 5 0 1.02521f
r26 74 75 0.68
r27 70 71 0.68
r28 68 70 1.91109
r29 67 74 0.0199312
r30 66 68 0.0457612
r31 66 67 0.0702158
r32 64 74 0.025689
r33 64 65 1.65778
r34 61 62 0.68
r35 59 65 0.08
r36 59 61 0.100593
r37 54 96 0.152615
r38 51 58 0.04
r39 49 62 0.0721478
r40 49 58 0.0626087
r41 48 62 0.0823519
r42 48 57 0.0510145
r43 44 89 0.08
r44 41 57 0.0404804
r45 37 113 0.185412
r46 36 39 0.126227
r47 36 37 0.000139544
r48 34 109 0.240842
r49 32 34 0.0459221
r50 29 71 0.145934
r51 29 113 0.68
r52 29 85 10.0475
r53 29 83 9.79752
r54 29 39 11.07
r55 28 75 0.145934
r56 28 109 0.68
r57 28 81 10.0475
r58 28 79 9.79752
r59 28 32 11.07
r60 27 96 15.53
r61 27 51 0.157778
r62 27 54 0.68
r63 26 89 15.61
r64 26 41 0.207568
r65 26 44 0.68
r66 23 27 2.43204
r67 19 26 3.56739
r68 17 85 86.1538
r69 13 83 228.462
r70 9 81 116.154
r71 5 79 243.462
.ends

.subckt PM_4BITRIPPLECARRY_X2.11 1 2
c0 22 0 0.354008f
c1 19 0 0.178143f
c2 15 0 1.27324f
c3 12 0 0.177564f
r4 30 31 2.71635
r5 24 31 10.5443
r6 17 19 0.137971
r7 16 22 0.0338756
r8 15 17 0.0447246
r9 15 16 1.36222
r10 10 22 0.00880368
r11 10 12 0.09
r12 7 30 2.00785
r13 7 19 15.61
r14 7 12 15.61
r15 6 24 10.5443
r16 3 7 1.68984
r17 2 6 7.0809
r18 1 3 3.7443
.ends

.subckt PM_4BITRIPPLECARRY_X2.12 4 8 10 14
c0 63 0 0.207883f
c1 53 0 0.113093f
c2 51 0 0.220072f
c3 47 0 0.252862f
c4 46 0 1.11389f
c5 41 0 0.033272f
c6 37 0 0.254255f
c7 34 0 0.027888f
c8 26 0 0.304432f
c9 24 0 0.0953925f
c10 21 0 0.166f
c11 20 0 0.15788f
c12 19 0 0.202551f
c13 8 0 0.376634f
c14 4 0 0.785942f
r15 55 60 13.2462
r16 50 53 0.0641495
r17 50 51 0.68
r18 46 53 1.154
r19 46 47 0.68
r20 43 51 0.144928
r21 41 51 0.193623
r22 37 70 0.148732
r23 34 43 0.04
r24 31 63 0.0869565
r25 28 41 0.0404804
r26 26 83 0.240842
r27 24 26 0.0459221
r28 21 47 0.145934
r29 21 83 0.68
r30 21 59 10.0475
r31 21 57 9.79752
r32 21 24 11.07
r33 20 70 15.53
r34 20 34 0.157778
r35 20 37 0.68
r36 19 60 6.23772
r37 19 63 15.61
r38 19 28 0.207568
r39 19 31 0.68
r40 15 20 2.07748
r41 14 15 4.33834
r42 12 55 13.2243
r43 11 12 5.04262
r44 10 11 3.76118
r45 8 59 86.1538
r46 4 57 228.462
.ends

.subckt PM_4BITRIPPLECARRY_X2.15 3 4
c0 17 0 0.196008f
c1 14 0 0.04964f
c2 13 0 0.585553f
c3 10 0 0.172469f
r4 21 27 4.71577
r5 15 17 0.11619
r6 13 15 0.0498542
r7 13 14 0.993043
r8 8 14 0.0453646
r9 8 10 0.176842
r10 7 27 5.48146
r11 7 20 0.126692
r12 7 17 15.53
r13 7 10 15.53
r14 6 21 9.78346
r15 5 6 4.1065
r16 4 5 4.10124
r17 3 20 1.59069
.ends

.subckt PM_4BITRIPPLECARRY_X2.29 3 4
c0 41 0 0.721325f
c1 25 0 0.338232f
c2 21 0 0.0401015f
c3 18 0 0.308501f
c4 15 0 0.864228f
r5 34 38 7.64377
r6 30 41 0.427789
r7 21 25 0.261873
r8 21 22 0.0398987
r9 18 22 0.223377
r10 15 38 5.27767
r11 15 41 15.53
r12 15 30 0.68
r13 14 15 0.881798
r14 14 25 0.68
r15 14 18 15.53
r16 13 34 7.62969
r17 10 13 4.11766
r18 5 14 2.00025
r19 5 7 2.92232
r20 4 10 4.48492
r21 3 7 0.958146
.ends

.subckt PM_4BITRIPPLECARRY_X3.8 1 2
c0 16 0 0.20204f
c1 13 0 0.055304f
c2 12 0 0.641714f
c3 9 0 0.202096f
r4 20 26 18.6721
r5 14 16 0.2656
r6 12 14 0.0456946
r7 12 13 0.710154
r8 7 13 0.0460268
r9 7 9 0.28
r10 6 26 0.315387
r11 6 24 2.53514
r12 6 16 15.61
r13 6 9 15.61
r14 5 20 20.3197
r15 4 5 3.1796
r16 3 24 0.895844
r17 2 4 3.76692
r18 1 3 3.74394
.ends

.subckt PM_4BITRIPPLECARRY_X3.9 5 9 13 17 19 23
c0 113 0 0.29308f
c1 89 0 0.246742f
c2 75 0 0.254773f
c3 71 0 0.250613f
c4 70 0 1.84287f
c5 68 0 0.110893f
c6 67 0 0.167442f
c7 64 0 1.59417f
c8 59 0 0.241748f
c9 58 0 0.0401279f
c10 57 0 0.030238f
c11 54 0 0.251237f
c12 51 0 0.027888f
c13 49 0 0.315591f
c14 48 0 0.0324166f
c15 36 0 0.208125f
c16 34 0 0.30428f
c17 32 0 0.0953925f
c18 29 0 0.166f
c19 28 0 0.166f
c20 27 0 0.157341f
c21 26 0 0.18769f
c22 17 0 0.376634f
c23 13 0 0.784931f
c24 9 0 0.578904f
c25 5 0 1.02521f
r26 74 75 0.68
r27 70 71 0.68
r28 68 70 1.91109
r29 67 74 0.0199312
r30 66 68 0.0457612
r31 66 67 0.0702158
r32 64 74 0.025689
r33 64 65 1.65778
r34 61 62 0.68
r35 59 65 0.08
r36 59 61 0.100593
r37 54 96 0.152615
r38 51 58 0.04
r39 49 62 0.0721478
r40 49 58 0.0626087
r41 48 62 0.0823519
r42 48 57 0.0510145
r43 44 89 0.08
r44 41 57 0.0404804
r45 37 113 0.185412
r46 36 39 0.126227
r47 36 37 0.000139544
r48 34 109 0.240842
r49 32 34 0.0459221
r50 29 71 0.145934
r51 29 113 0.68
r52 29 85 10.0475
r53 29 83 9.79752
r54 29 39 11.07
r55 28 75 0.145934
r56 28 109 0.68
r57 28 81 10.0475
r58 28 79 9.79752
r59 28 32 11.07
r60 27 96 15.53
r61 27 51 0.157778
r62 27 54 0.68
r63 26 89 15.61
r64 26 41 0.207568
r65 26 44 0.68
r66 23 27 2.43204
r67 19 26 3.56739
r68 17 85 86.1538
r69 13 83 228.462
r70 9 81 116.154
r71 5 79 243.462
.ends

.subckt PM_4BITRIPPLECARRY_X3.11 1 2
c0 22 0 0.354008f
c1 19 0 0.178143f
c2 15 0 1.27324f
c3 12 0 0.177564f
r4 30 31 2.71635
r5 24 31 10.5443
r6 17 19 0.137971
r7 16 22 0.0338756
r8 15 17 0.0447246
r9 15 16 1.36222
r10 10 22 0.00880368
r11 10 12 0.09
r12 7 30 2.00785
r13 7 19 15.61
r14 7 12 15.61
r15 6 24 10.5443
r16 3 7 1.68984
r17 2 6 7.0809
r18 1 3 3.7443
.ends

.subckt PM_4BITRIPPLECARRY_X3.12 4 8 10 14
c0 63 0 0.207883f
c1 53 0 0.113093f
c2 51 0 0.220072f
c3 47 0 0.252862f
c4 46 0 1.11389f
c5 41 0 0.033272f
c6 37 0 0.254255f
c7 34 0 0.027888f
c8 26 0 0.304432f
c9 24 0 0.0953925f
c10 21 0 0.166f
c11 20 0 0.15788f
c12 19 0 0.202551f
c13 8 0 0.376634f
c14 4 0 0.785942f
r15 55 60 13.2462
r16 50 53 0.0641495
r17 50 51 0.68
r18 46 53 1.154
r19 46 47 0.68
r20 43 51 0.144928
r21 41 51 0.193623
r22 37 70 0.148732
r23 34 43 0.04
r24 31 63 0.0869565
r25 28 41 0.0404804
r26 26 83 0.240842
r27 24 26 0.0459221
r28 21 47 0.145934
r29 21 83 0.68
r30 21 59 10.0475
r31 21 57 9.79752
r32 21 24 11.07
r33 20 70 15.53
r34 20 34 0.157778
r35 20 37 0.68
r36 19 60 6.23772
r37 19 63 15.61
r38 19 28 0.207568
r39 19 31 0.68
r40 15 20 2.07748
r41 14 15 4.33834
r42 12 55 13.2243
r43 11 12 5.04262
r44 10 11 3.76118
r45 8 59 86.1538
r46 4 57 228.462
.ends

.subckt PM_4BITRIPPLECARRY_X3.15 3 4
c0 17 0 0.196008f
c1 14 0 0.04964f
c2 13 0 0.585553f
c3 10 0 0.172469f
r4 21 27 4.71577
r5 15 17 0.11619
r6 13 15 0.0498542
r7 13 14 0.993043
r8 8 14 0.0453646
r9 8 10 0.176842
r10 7 27 5.48146
r11 7 20 0.126692
r12 7 17 15.53
r13 7 10 15.53
r14 6 21 9.78346
r15 5 6 4.1065
r16 4 5 4.10124
r17 3 20 1.59069
.ends

.subckt PM_4BITRIPPLECARRY_X3.29 3 4
c0 41 0 0.721325f
c1 25 0 0.338232f
c2 21 0 0.0401015f
c3 18 0 0.308501f
c4 15 0 0.864228f
r5 34 38 7.64377
r6 30 41 0.427789
r7 21 25 0.261873
r8 21 22 0.0398987
r9 18 22 0.223377
r10 15 38 5.27767
r11 15 41 15.53
r12 15 30 0.68
r13 14 15 0.881798
r14 14 25 0.68
r15 14 18 15.53
r16 13 34 7.62969
r17 10 13 4.11766
r18 5 14 2.00025
r19 5 7 2.92232
r20 4 10 4.48492
r21 3 7 0.958146
.ends

.subckt PM_4BITRIPPLECARRY_B0 7 11 15 19 23 27 31 35 164
c0 160 0 0.152325f
c1 154 0 0.1212f
c2 121 0 0.735092f
c3 100 0 0.211138f
c4 79 0 0.0643075f
c5 76 0 0.186336f
c6 73 0 0.447535f
c7 72 0 0.301977f
c8 71 0 0.05592f
c9 70 0 0.0290918f
c10 69 0 1.7364f
c11 67 0 0.111292f
c12 65 0 0.09797f
c13 62 0 0.774826f
c14 61 0 0.058727f
c15 60 0 0.444956f
c16 58 0 0.121358f
c17 56 0 0.096785f
c18 49 0 0.09464f
c19 46 0 0.019211f
c20 44 0 0.144303f
c21 42 0 0.363906f
c22 41 0 0.264895f
c23 40 0 0.364122f
c24 39 0 0.36477f
c25 38 0 0.340094f
c26 35 0 0.643314f
c27 31 0 0.94099f
c28 27 0 0.578904f
c29 23 0 0.998733f
c30 19 0 0.503194f
c31 15 0 0.861569f
c32 11 0 0.507081f
c33 7 0 0.861322f
r34 160 164 0.0302454
r35 109 115 1.39571
r36 100 139 0.098153
r37 94 154 0.0518
r38 76 160 0.0875102
r39 71 121 1.02171
r40 71 72 0.0805311
r41 70 72 0.489231
r42 69 115 1.21114
r43 69 70 0.0405311
r44 67 88 0.0549859
r45 65 67 0.0465434
r46 61 109 0.0145714
r47 61 62 0.0858909
r48 58 82 0.0633425
r49 56 58 0.046221
r50 49 154 0.0459221
r51 46 60 0.0400717
r52 46 62 1.63434
r53 44 105 0.0834265
r54 44 60 1.01128
r55 42 142 10.0475
r56 42 140 9.79752
r57 42 139 11.07
r58 42 124 0.206667
r59 42 100 0.68
r60 41 124 0.0624658
r61 41 121 0.68
r62 41 118 0.0558904
r63 41 115 0.68
r64 41 112 0.0558904
r65 41 109 0.68
r66 41 79 0.025642
r67 41 73 0.0201679
r68 41 105 0.68
r69 40 136 10.1725
r70 40 134 9.67252
r71 40 118 0.206667
r72 40 94 0.68
r73 40 49 11.07
r74 39 132 10.2975
r75 39 130 9.54752
r76 39 112 0.206667
r77 39 88 0.68
r78 39 65 11.07
r79 38 128 10.1725
r80 38 126 9.67252
r81 38 79 0.187778
r82 38 82 0.68
r83 38 56 11.07
r84 37 73 0.430989
r85 37 76 0.68
r86 35 142 126.154
r87 31 140 245.385
r88 27 136 115.769
r89 23 134 243.846
r90 19 132 100.769
r91 15 130 243.846
r92 11 128 105
r93 7 126 239.615
.ends

.subckt PM_4BITRIPPLECARRY_CIN0 6 10 14 18 22 26 118
c0 114 0 0.14753f
c1 106 0 0.133148f
c2 80 0 0.104395f
c3 73 0 0.213983f
c4 70 0 0.033072f
c5 67 0 3.5504f
c6 61 0 0.218033f
c7 58 0 0.033072f
c8 46 0 0.027888f
c9 44 0 0.055905f
c10 41 0 0.180672f
c11 38 0 0.837397f
c12 35 0 0.0951335f
c13 32 0 0.332118f
c14 31 0 0.33057f
c15 30 0 0.325126f
c16 29 0 0.403326f
c17 26 0 0.646704f
c18 22 0 0.962672f
c19 18 0 0.578904f
c20 14 0 0.982068f
c21 10 0 0.503194f
c22 6 0 0.860155f
r23 114 118 0.0392636
r24 73 95 0.0892308
r25 70 82 0.04
r26 61 89 0.0858586
r27 58 81 0.04
r28 55 67 2.37333
r29 55 78 1.81091
r30 49 106 0.0656203
r31 46 80 0.04
r32 44 80 0.161159
r33 41 114 0.081
r34 35 106 0.0459221
r35 32 98 10.0475
r36 32 96 9.79752
r37 32 95 11.07
r38 32 70 0.166667
r39 32 73 0.68
r40 31 92 10.0475
r41 31 90 9.79752
r42 31 89 11.07
r43 31 58 0.166667
r44 31 61 0.68
r45 30 86 9.92252
r46 30 84 9.92252
r47 30 46 0.166667
r48 30 49 0.68
r49 30 35 11.07
r50 29 44 0.0268898
r51 29 38 0.019383
r52 29 78 0.68
r53 29 82 0.209855
r54 29 67 0.68
r55 29 81 0.209855
r56 29 55 0.68
r57 28 38 0.834833
r58 28 41 0.68
r59 26 98 126.154
r60 22 96 245.385
r61 18 92 116.154
r62 14 90 243.462
r63 10 86 105.769
r64 6 84 238.846
.ends

.subckt PM_4BITRIPPLECARRY_A0 7 11 15 19 23 27 31 35 110
c0 112 0 0.0888495f
c1 111 0 0.0516f
c2 107 0 0.1436f
c3 87 0 0.0378167f
c4 85 0 0.0393665f
c5 83 0 0.094f
c6 78 0 0.12717f
c7 74 0 0.142948f
c8 73 0 0.0231288f
c9 72 0 0.257251f
c10 71 0 0.023005f
c11 70 0 0.218367f
c12 69 0 0.021805f
c13 66 0 0.209721f
c14 61 0 0.140221f
c15 57 0 1.7911f
c16 53 0 1.73628f
c17 49 0 0.10801f
c18 48 0 0.0455212f
c19 47 0 0.17661f
c20 44 0 0.04081f
c21 43 0 0.131768f
c22 39 0 0.242178f
c23 37 0 0.664f
c24 35 0 0.643314f
c25 31 0 0.934051f
c26 27 0 0.578904f
c27 23 0 0.981836f
c28 19 0 0.503194f
c29 15 0 0.861446f
c30 11 0 0.507081f
c31 7 0 0.860526f
r32 111 112 0.0460029
r33 110 112 0.0172549
r34 107 111 0.144
r35 83 85 0.036
r36 76 78 0.09
r37 74 76 0.005
r38 71 72 0.705
r39 69 70 0.548571
r40 68 107 0.0141052
r41 66 68 0.00314342
r42 64 66 0.0691552
r43 59 61 0.0702222
r44 58 87 0.0552239
r45 57 59 0.0528538
r46 57 58 3.5619
r47 55 87 0.00523542
r48 55 85 0.0435443
r49 54 76 0.0295837
r50 53 87 0.0552239
r51 53 54 3.58286
r52 49 74 0.0403178
r53 49 73 0.305
r54 48 72 0.0847309
r55 47 73 0.0447309
r56 47 48 0.352381
r57 44 70 0.082458
r58 43 71 0.0447309
r59 43 44 0.278095
r60 40 64 0.0390764
r61 39 69 0.042458
r62 39 40 0.510476
r63 37 103 10.0475
r64 37 101 9.79752
r65 37 99 10.0475
r66 37 97 9.79752
r67 37 95 10.4225
r68 37 93 9.42252
r69 37 91 10.0475
r70 37 89 9.79752
r71 37 83 11.07
r72 37 78 11.07
r73 37 66 11.07
r74 37 61 11.07
r75 35 103 126.154
r76 31 101 245.385
r77 27 99 116.154
r78 23 97 243.462
r79 19 95 104.231
r80 15 93 240.385
r81 11 91 106.154
r82 7 89 238.462
.ends

.subckt PM_4BITRIPPLECARRY_S0 1 3 48
c0 29 0 0.349887f
c1 25 0 0.056316f
c2 24 0 0.377431f
c3 21 0 0.130488f
c4 17 0 0.0473925f
c5 13 0 0.414529f
c6 8 0 0.458839f
c7 5 0 0.164419f
c8 4 0 0.0855768f
r9 29 48 0.0924412
r10 24 26 0.0450432
r11 24 25 0.52
r12 18 25 0.0455406
r13 16 21 0.0433258
r14 16 17 0.00287423
r15 11 17 0.0508901
r16 11 13 0.578113
r17 6 17 0.0508901
r18 6 8 0.655094
r19 5 26 0.156883
r20 5 29 0.68
r21 4 18 0.047619
r22 4 21 0.68
r23 4 13 15.53
r24 4 8 15.61
r25 3 4 3.53331
r26 1 4 6.38955
.ends

.subckt PM_4BITRIPPLECARRY_A1 7 11 15 19 23 27 31 35 110
c0 112 0 0.102112f
c1 111 0 0.0496f
c2 107 0 0.1436f
c3 87 0 0.0378167f
c4 85 0 0.0393665f
c5 83 0 0.094f
c6 78 0 0.12717f
c7 74 0 0.142948f
c8 73 0 0.0231288f
c9 72 0 0.257251f
c10 71 0 0.023005f
c11 70 0 0.218367f
c12 69 0 0.021805f
c13 66 0 0.209721f
c14 61 0 0.140221f
c15 57 0 1.7911f
c16 53 0 1.73628f
c17 49 0 0.10801f
c18 48 0 0.0455212f
c19 47 0 0.17661f
c20 44 0 0.04081f
c21 43 0 0.131768f
c22 39 0 0.242178f
c23 37 0 0.664f
c24 35 0 0.643314f
c25 31 0 0.934051f
c26 27 0 0.578904f
c27 23 0 0.981836f
c28 19 0 0.503194f
c29 15 0 0.861446f
c30 11 0 0.507081f
c31 7 0 0.860526f
r32 111 112 0.044166
r33 110 112 0.0308571
r34 107 111 0.144
r35 83 85 0.036
r36 76 78 0.09
r37 74 76 0.005
r38 71 72 0.705
r39 69 70 0.548571
r40 68 107 0.0141052
r41 66 68 0.00314342
r42 64 66 0.0691552
r43 59 61 0.0702222
r44 58 87 0.0552239
r45 57 59 0.0528538
r46 57 58 3.5619
r47 55 87 0.00523542
r48 55 85 0.0435443
r49 54 76 0.0295837
r50 53 87 0.0552239
r51 53 54 3.58286
r52 49 74 0.0403178
r53 49 73 0.305
r54 48 72 0.0847309
r55 47 73 0.0447309
r56 47 48 0.352381
r57 44 70 0.082458
r58 43 71 0.0447309
r59 43 44 0.278095
r60 40 64 0.0390764
r61 39 69 0.042458
r62 39 40 0.510476
r63 37 103 10.0475
r64 37 101 9.79752
r65 37 99 10.0475
r66 37 97 9.79752
r67 37 95 10.4225
r68 37 93 9.42252
r69 37 91 10.0475
r70 37 89 9.79752
r71 37 83 11.07
r72 37 78 11.07
r73 37 66 11.07
r74 37 61 11.07
r75 35 103 126.154
r76 31 101 245.385
r77 27 99 116.154
r78 23 97 243.462
r79 19 95 104.231
r80 15 93 240.385
r81 11 91 106.154
r82 7 89 238.462
.ends

.subckt PM_4BITRIPPLECARRY_6 1 3 31 35 39 43 47 51
c0 153 0 0.09832f
c1 152 0 0.220101f
c2 148 0 0.08276f
c3 147 0 0.5621f
c4 146 0 0.286914f
c5 143 0 0.976286f
c6 141 0 0.083904f
c7 131 0 0.133148f
c8 105 0 0.104395f
c9 98 0 0.213983f
c10 95 0 0.033072f
c11 92 0 3.5504f
c12 86 0 0.218033f
c13 83 0 0.033072f
c14 71 0 0.027888f
c15 69 0 0.055905f
c16 66 0 0.180672f
c17 63 0 0.837397f
c18 60 0 0.0951335f
c19 57 0 0.332118f
c20 56 0 0.33057f
c21 55 0 0.325126f
c22 54 0 0.403326f
c23 51 0 0.646704f
c24 47 0 0.962672f
c25 43 0 0.578904f
c26 39 0 0.982068f
c27 35 0 0.503194f
c28 31 0 0.860155f
c29 11 0 0.333336f
c30 7 0 0.57367f
r31 147 149 0.136634
r32 147 148 0.393171
r33 145 148 0.0617736
r34 145 146 0.252584
r35 143 146 0.0447469
r36 143 153 0.838095
r37 142 152 0.0731624
r38 141 153 0.0462951
r39 141 142 0.0435294
r40 98 120 0.0892308
r41 95 107 0.04
r42 86 114 0.0858586
r43 83 106 0.04
r44 80 92 2.37333
r45 80 103 1.81091
r46 74 131 0.0656203
r47 71 105 0.04
r48 69 105 0.161159
r49 66 149 0.081
r50 60 131 0.0459221
r51 57 123 10.0475
r52 57 121 9.79752
r53 57 120 11.07
r54 57 95 0.166667
r55 57 98 0.68
r56 56 117 10.0475
r57 56 115 9.79752
r58 56 114 11.07
r59 56 83 0.166667
r60 56 86 0.68
r61 55 111 9.92252
r62 55 109 9.92252
r63 55 71 0.166667
r64 55 74 0.68
r65 55 60 11.07
r66 54 69 0.0268898
r67 54 63 0.019383
r68 54 103 0.68
r69 54 107 0.209855
r70 54 92 0.68
r71 54 106 0.209855
r72 54 80 0.68
r73 53 63 0.834833
r74 53 66 0.68
r75 51 123 126.154
r76 47 121 245.385
r77 43 117 116.154
r78 39 115 243.462
r79 35 111 105.769
r80 31 109 238.846
r81 16 152 0.00154683
r82 14 53 15.53
r83 11 14 0.0430662
r84 10 16 0.0486049
r85 10 11 0.30375
r86 7 53 15.61
r87 5 16 0.0486049
r88 5 7 0.655
r89 3 53 3.53331
r90 1 53 6.38955
.ends

.subckt PM_4BITRIPPLECARRY_B1 7 11 15 19 23 27 31 35 164
c0 160 0 0.113625f
c1 154 0 0.1212f
c2 121 0 0.735092f
c3 100 0 0.211138f
c4 79 0 0.0643075f
c5 76 0 0.186336f
c6 73 0 0.447535f
c7 72 0 0.301977f
c8 71 0 0.05592f
c9 70 0 0.0290918f
c10 69 0 1.7364f
c11 67 0 0.111292f
c12 65 0 0.09797f
c13 62 0 0.774826f
c14 61 0 0.058727f
c15 60 0 0.444956f
c16 58 0 0.121358f
c17 56 0 0.096785f
c18 49 0 0.09464f
c19 46 0 0.019211f
c20 44 0 0.144303f
c21 42 0 0.363906f
c22 41 0 0.264895f
c23 40 0 0.364122f
c24 39 0 0.36477f
c25 38 0 0.340094f
c26 35 0 0.643314f
c27 31 0 0.94099f
c28 27 0 0.578904f
c29 23 0 0.998733f
c30 19 0 0.503194f
c31 15 0 0.861569f
c32 11 0 0.507081f
c33 7 0 0.861322f
r34 160 164 0.0279861
r35 109 115 1.39571
r36 100 139 0.098153
r37 94 154 0.0518
r38 76 160 0.0875102
r39 71 121 1.02171
r40 71 72 0.0805311
r41 70 72 0.489231
r42 69 115 1.21114
r43 69 70 0.0405311
r44 67 88 0.0549859
r45 65 67 0.0465434
r46 61 109 0.0145714
r47 61 62 0.0858909
r48 58 82 0.0633425
r49 56 58 0.046221
r50 49 154 0.0459221
r51 46 60 0.0400717
r52 46 62 1.63434
r53 44 105 0.0834265
r54 44 60 1.01128
r55 42 142 10.0475
r56 42 140 9.79752
r57 42 139 11.07
r58 42 124 0.206667
r59 42 100 0.68
r60 41 124 0.0624658
r61 41 121 0.68
r62 41 118 0.0558904
r63 41 115 0.68
r64 41 112 0.0558904
r65 41 109 0.68
r66 41 79 0.025642
r67 41 73 0.0201679
r68 41 105 0.68
r69 40 136 10.1725
r70 40 134 9.67252
r71 40 118 0.206667
r72 40 94 0.68
r73 40 49 11.07
r74 39 132 10.2975
r75 39 130 9.54752
r76 39 112 0.206667
r77 39 88 0.68
r78 39 65 11.07
r79 38 128 10.1725
r80 38 126 9.67252
r81 38 79 0.187778
r82 38 82 0.68
r83 38 56 11.07
r84 37 73 0.430989
r85 37 76 0.68
r86 35 142 126.154
r87 31 140 245.385
r88 27 136 115.769
r89 23 134 243.846
r90 19 132 100.769
r91 15 130 243.846
r92 11 128 105
r93 7 126 239.615
.ends

.subckt PM_4BITRIPPLECARRY_S1 1 3 48
c0 51 0 0.248549f
c1 25 0 0.056316f
c2 24 0 0.377431f
c3 21 0 0.130488f
c4 17 0 0.0473925f
c5 13 0 0.414529f
c6 8 0 0.458839f
c7 5 0 0.164419f
c8 4 0 0.0855768f
r9 48 51 0.0310588
r10 29 51 0.0637984
r11 24 26 0.0450432
r12 24 25 0.52
r13 18 25 0.0455406
r14 16 21 0.0433258
r15 16 17 0.00287423
r16 11 17 0.0508901
r17 11 13 0.578113
r18 6 17 0.0508901
r19 6 8 0.655094
r20 5 26 0.156883
r21 5 29 0.68
r22 4 18 0.047619
r23 4 21 0.68
r24 4 13 15.53
r25 4 8 15.61
r26 3 4 3.53331
r27 1 4 6.38955
.ends

.subckt PM_4BITRIPPLECARRY_9 1 3 31 35 39 43 47 51
c0 153 0 0.148428f
c1 151 0 0.193381f
c2 148 0 0.06752f
c3 145 0 0.244436f
c4 144 0 0.1235f
c5 142 0 0.737444f
c6 131 0 0.133148f
c7 105 0 0.104395f
c8 98 0 0.213983f
c9 95 0 0.033072f
c10 92 0 3.5504f
c11 86 0 0.218033f
c12 83 0 0.033072f
c13 71 0 0.027888f
c14 69 0 0.055905f
c15 66 0 0.180672f
c16 63 0 0.837397f
c17 60 0 0.0951335f
c18 57 0 0.332118f
c19 56 0 0.33057f
c20 55 0 0.325126f
c21 54 0 0.403326f
c22 51 0 0.646704f
c23 47 0 0.962672f
c24 43 0 0.578904f
c25 39 0 0.982068f
c26 35 0 0.503194f
c27 31 0 0.860155f
c28 11 0 0.333336f
c29 7 0 0.57367f
r30 148 153 0.050801
r31 147 153 0.246154
r32 144 147 0.0663519
r33 144 145 0.177692
r34 142 145 0.0447914
r35 142 151 0.4825
r36 141 151 0.0850265
r37 98 120 0.0892308
r38 95 107 0.04
r39 86 114 0.0858586
r40 83 106 0.04
r41 80 92 2.37333
r42 80 103 1.81091
r43 74 131 0.0656203
r44 71 105 0.04
r45 69 105 0.161159
r46 66 148 0.081
r47 60 131 0.0459221
r48 57 123 10.0475
r49 57 121 9.79752
r50 57 120 11.07
r51 57 95 0.166667
r52 57 98 0.68
r53 56 117 10.0475
r54 56 115 9.79752
r55 56 114 11.07
r56 56 83 0.166667
r57 56 86 0.68
r58 55 111 9.92252
r59 55 109 9.92252
r60 55 71 0.166667
r61 55 74 0.68
r62 55 60 11.07
r63 54 69 0.0268898
r64 54 63 0.019383
r65 54 103 0.68
r66 54 107 0.209855
r67 54 92 0.68
r68 54 106 0.209855
r69 54 80 0.68
r70 53 63 0.834833
r71 53 66 0.68
r72 51 123 126.154
r73 47 121 245.385
r74 43 117 116.154
r75 39 115 243.462
r76 35 111 105.769
r77 31 109 238.846
r78 16 141 0.00154683
r79 14 53 15.53
r80 11 14 0.0430662
r81 10 16 0.0486049
r82 10 11 0.30375
r83 7 53 15.61
r84 5 16 0.0486049
r85 5 7 0.655
r86 3 53 3.53331
r87 1 53 6.38955
.ends

.subckt PM_4BITRIPPLECARRY_B2 7 11 15 19 23 27 31 35 164
c0 160 0 0.171157f
c1 154 0 0.1212f
c2 121 0 0.735092f
c3 100 0 0.211138f
c4 79 0 0.0643075f
c5 76 0 0.148716f
c6 73 0 0.447535f
c7 72 0 0.301977f
c8 71 0 0.05592f
c9 70 0 0.0290918f
c10 69 0 1.7364f
c11 67 0 0.111292f
c12 65 0 0.09797f
c13 62 0 0.774826f
c14 61 0 0.058727f
c15 60 0 0.444956f
c16 58 0 0.121358f
c17 56 0 0.096785f
c18 49 0 0.09464f
c19 46 0 0.019211f
c20 44 0 0.144303f
c21 42 0 0.363906f
c22 41 0 0.264895f
c23 40 0 0.364122f
c24 39 0 0.36477f
c25 38 0 0.340094f
c26 35 0 0.643314f
c27 31 0 0.94099f
c28 27 0 0.578904f
c29 23 0 0.998733f
c30 19 0 0.503194f
c31 15 0 0.861569f
c32 11 0 0.507081f
c33 7 0 0.861322f
r34 160 164 0.0416159
r35 109 115 1.39571
r36 100 139 0.098153
r37 94 154 0.0518
r38 76 160 0.0581224
r39 71 121 1.02171
r40 71 72 0.0805311
r41 70 72 0.489231
r42 69 115 1.21114
r43 69 70 0.0405311
r44 67 88 0.0549859
r45 65 67 0.0465434
r46 61 109 0.0145714
r47 61 62 0.0858909
r48 58 82 0.0633425
r49 56 58 0.046221
r50 49 154 0.0459221
r51 46 60 0.0400717
r52 46 62 1.63434
r53 44 105 0.0834265
r54 44 60 1.01128
r55 42 142 10.0475
r56 42 140 9.79752
r57 42 139 11.07
r58 42 124 0.206667
r59 42 100 0.68
r60 41 124 0.0624658
r61 41 121 0.68
r62 41 118 0.0558904
r63 41 115 0.68
r64 41 112 0.0558904
r65 41 109 0.68
r66 41 79 0.025642
r67 41 73 0.0201679
r68 41 105 0.68
r69 40 136 10.1725
r70 40 134 9.67252
r71 40 118 0.206667
r72 40 94 0.68
r73 40 49 11.07
r74 39 132 10.2975
r75 39 130 9.54752
r76 39 112 0.206667
r77 39 88 0.68
r78 39 65 11.07
r79 38 128 10.1725
r80 38 126 9.67252
r81 38 79 0.187778
r82 38 82 0.68
r83 38 56 11.07
r84 37 73 0.430989
r85 37 76 0.68
r86 35 142 126.154
r87 31 140 245.385
r88 27 136 115.769
r89 23 134 243.846
r90 19 132 100.769
r91 15 130 243.846
r92 11 128 105
r93 7 126 239.615
.ends

.subckt PM_4BITRIPPLECARRY_A2 7 11 15 19 23 27 31 35 110
c0 108 0 0.136932f
c1 107 0 0.1316f
c2 87 0 0.0378167f
c3 85 0 0.0393665f
c4 83 0 0.094f
c5 78 0 0.12717f
c6 74 0 0.142948f
c7 73 0 0.0231288f
c8 72 0 0.257251f
c9 71 0 0.023005f
c10 70 0 0.218367f
c11 69 0 0.021805f
c12 66 0 0.209721f
c13 61 0 0.140221f
c14 57 0 1.7911f
c15 53 0 1.73628f
c16 49 0 0.10801f
c17 48 0 0.0455212f
c18 47 0 0.17661f
c19 44 0 0.04081f
c20 43 0 0.131768f
c21 39 0 0.242178f
c22 37 0 0.664f