* LVS netlist generated with ICnet by 'bxl1703' on Thu Dec  5 2019 at 10:25:50

*
* Globals.
*
.global VSS VDD

*
* Component pathname : $GDKGATES/dff
*
.subckt dff  Q QB CLK D VDD_esc1 VSS_esc2

        MN10 N$26 bclk- N$23 VSS_esc2 nmos l=0.14u w=0.35u m=1
        MN11 N$23 N$291 VSS_esc2 VSS_esc2 nmos l=0.14u w=0.35u m=1
        MN7 bclk bclk- VSS_esc2 VSS_esc2 nmos l=0.14u w=0.77u m=1
        MN14 Q QB VSS_esc2 VSS_esc2 nmos l=0.14u w=0.77u m=1
        MP14 Q QB VDD_esc1 VDD_esc1 pmos l=0.14u w=1.54u m=1
        MP1 N$2 bclk VDD_esc1 VDD_esc1 pmos l=0.14u w=2.24u m=1
        MP8 N$19 bclk- VDD_esc1 VDD_esc1 pmos l=0.14u w=2.24u m=1
        MP9 N$26 N$8 N$19 VDD_esc1 pmos l=0.14u w=2.24u m=1
        MP10 N$20 N$291 VDD_esc1 VDD_esc1 pmos l=0.14u w=0.35u m=1
        MP11 N$26 bclk N$20 VDD_esc1 pmos l=0.14u w=0.35u m=1
        MP12 N$291 N$26 VDD_esc1 VDD_esc1 pmos l=0.14u w=0.35u m=1
        MN8 N$26 N$8 N$22 VSS_esc2 nmos l=0.14u w=1.19u m=1
        MN9 N$22 bclk VSS_esc2 VSS_esc2 nmos l=0.14u w=1.19u m=1
        MN13 QB N$26 VSS_esc2 VSS_esc2 nmos l=0.14u w=0.77u m=1
        MP6 bclk- CLK VDD_esc1 VDD_esc1 pmos l=0.14u w=1.54u m=1
        MN6 bclk- CLK VSS_esc2 VSS_esc2 nmos l=0.14u w=0.77u m=1
        MP13 QB N$26 VDD_esc1 VDD_esc1 pmos l=0.14u w=1.54u m=1
        MN12 N$291 N$26 VSS_esc2 VSS_esc2 nmos l=0.14u w=0.35u m=1
        MN1 N$8 D N$6 VSS_esc2 nmos l=0.14u w=1.19u m=1
        MN2 N$6 bclk- VSS_esc2 VSS_esc2 nmos l=0.14u w=1.19u m=1
        MN3 N$8 N$249 N$7 VSS_esc2 nmos l=0.14u w=0.35u m=1
        MN5 N$249 N$8 VSS_esc2 VSS_esc2 nmos l=0.14u w=0.35u m=1
        MN4 N$7 bclk VSS_esc2 VSS_esc2 nmos l=0.14u w=0.35u m=1
        MP7 bclk bclk- VDD_esc1 VDD_esc1 pmos l=0.14u w=1.54u m=1
        MP2 N$8 D N$2 VDD_esc1 pmos l=0.14u w=2.24u m=1
        MP3 N$4 bclk- VDD_esc1 VDD_esc1 pmos l=0.14u w=0.35u m=1
        MP4 N$8 N$249 N$4 VDD_esc1 pmos l=0.14u w=0.35u m=1
        MP5 N$249 N$8 VDD_esc1 VDD_esc1 pmos l=0.14u w=0.35u m=1
.ends dff

*
* Component pathname : $GDKGATES/nor02ii
*
.subckt nor02ii  Y A0 A1 VDD_esc1 VSS_esc2

        MN1 N$4 A1 VSS_esc2 VSS_esc2 nmos l=0.14u w=0.35u m=1
        MP1 N$4 A1 VDD_esc1 VDD_esc1 pmos l=0.14u w=0.77u m=1
        MN4 Y A0 VSS_esc2 VSS_esc2 nmos l=0.14u w=0.35u m=1
        MN2 Y N$4 VSS_esc2 VSS_esc2 nmos l=0.14u w=0.35u m=1
        MP4 Y N$4 N$1 VDD_esc1 pmos l=0.14u w=1.19u m=1
        MP2 N$1 A0 VDD_esc1 VDD_esc1 pmos l=0.14u w=1.19u m=1
.ends nor02ii

*
* Component pathname : $GDKGATES/nor04
*
.subckt nor04  Y A0 A1 A2 A3 VDD_esc1 VSS_esc2

        MP4 Y A3 N$6 VDD_esc1 pmos l=0.14u w=2.24u m=1
        MN3 Y A0 VSS_esc2 VSS_esc2 nmos l=0.14u w=0.77u m=1
        MP3 N$6 A2 N$3 VDD_esc1 pmos l=0.14u w=2.24u m=1
        MN4 Y A3 VSS_esc2 VSS_esc2 nmos l=0.14u w=0.77u m=1
        MN2 Y A1 VSS_esc2 VSS_esc2 nmos l=0.14u w=0.77u m=1
        MN1 Y A2 VSS_esc2 VSS_esc2 nmos l=0.14u w=0.77u m=1
        MP2 N$3 A1 N$1 VDD_esc1 pmos l=0.14u w=2.24u m=1
        MP1 N$1 A0 VDD_esc1 VDD_esc1 pmos l=0.14u w=2.24u m=1
.ends nor04

*
* Component pathname : $GDKGATES/nand02
*
.subckt nand02  Y A0 A1 VDD_esc1 VSS_esc2

        MP1 Y A0 VDD_esc1 VDD_esc1 pmos l=0.14u w=1.05u m=1
        MN1 Y A0 N$5 VSS_esc2 nmos l=0.14u w=0.77u m=1
        MN2 N$5 A1 VSS_esc2 VSS_esc2 nmos l=0.14u w=0.77u m=1
        MP2 Y A1 VDD_esc1 VDD_esc1 pmos l=0.14u w=1.05u m=1
.ends nand02

*
* Component pathname : $GDKGATES/xnor2
*
.subckt xnor2  Y A0 A1 VDD_esc1 VSS_esc2

        MP5 N$9 A1 VDD_esc1 VDD_esc1 pmos l=0.14u w=1.19u m=1
        MP4 N$9 A0 VDD_esc1 VDD_esc1 pmos l=0.14u w=1.19u m=1
        MN4 N$9 A0 N$8 VSS_esc2 nmos l=0.14u w=0.77u m=1
        MN3 N$3 N$9 VSS_esc2 VSS_esc2 nmos l=0.14u w=0.77u m=1
        MN2 Y A1 N$3 VSS_esc2 nmos l=0.14u w=0.77u m=1
        MN1 Y A0 N$3 VSS_esc2 nmos l=0.14u w=0.77u m=1
        MP3 Y A1 N$1 VDD_esc1 pmos l=0.14u w=2.24u m=1
        MP2 Y N$9 VDD_esc1 VDD_esc1 pmos l=0.14u w=1.19u m=1
        MP1 N$1 A0 VDD_esc1 VDD_esc1 pmos l=0.14u w=2.24u m=1
        MN5 N$8 A1 VSS_esc2 VSS_esc2 nmos l=0.14u w=0.77u m=1
.ends xnor2

*
* Component pathname : $GDKGATES/mux21
*
.subckt mux21  Y A0 A1 S0 VDD_esc1 VSS_esc2

        MN4 N$11 A1 N$3 VSS_esc2 nmos l=0.14u w=0.77u m=1
        M1 Y N$11 VDD_esc1 VDD_esc1 pmos l=0.14u w=1.54u m=1
        MN5 N$3 S0 VSS_esc2 VSS_esc2 nmos l=0.14u w=0.77u m=1
        M2 Y N$11 VSS_esc2 VSS_esc2 nmos l=0.14u w=0.77u m=1
        MP5 N$11 A1 N$2 VDD_esc1 pmos l=0.14u w=1.54u m=1
        MP4 N$2 N$231 VDD_esc1 VDD_esc1 pmos l=0.14u w=1.54u m=1
        MN3 N$1 N$231 VSS_esc2 VSS_esc2 nmos l=0.14u w=0.77u m=1
        MN2 N$11 A0 N$1 VSS_esc2 nmos l=0.14u w=0.77u m=1
        MP2 N$7 S0 VDD_esc1 VDD_esc1 pmos l=0.14u w=1.54u m=1
        MN1 N$231 S0 VSS_esc2 VSS_esc2 nmos l=0.14u w=0.35u m=1
        MP1 N$231 S0 VDD_esc1 VDD_esc1 pmos l=0.14u w=0.77u m=1
        MP3 N$11 A0 N$7 VDD_esc1 pmos l=0.14u w=1.54u m=1
.ends mux21

*
* Component pathname : $GDKGATES/or02
*
.subckt or02  Y A0 A1 VDD_esc1 VSS_esc2

        MP4 Y N$5 VDD_esc1 VDD_esc1 pmos l=0.14u w=0.77u m=1
        MN2 N$5 A0 VSS_esc2 VSS_esc2 nmos l=0.14u w=0.35u m=1
        MN1 N$5 A1 VSS_esc2 VSS_esc2 nmos l=0.14u w=0.35u m=1
        MP3 N$5 A1 N$1 VDD_esc1 pmos l=0.14u w=1.19u m=1
        MP2 N$1 A0 VDD_esc1 VDD_esc1 pmos l=0.14u w=1.19u m=1
        MN3 Y N$5 VSS_esc2 VSS_esc2 nmos l=0.14u w=0.35u m=1
.ends or02

*
* Component pathname : $GDKGATES/nand03
*
.subckt nand03  Y A0 A1 A2 VDD_esc1 VSS_esc2

        MP3 Y A2 VDD_esc1 VDD_esc1 pmos l=0.14u w=1.26u m=1
        MN2 Y A0 N$4 VSS_esc2 nmos l=0.14u w=1.19u m=1
        MN1 N$5 A2 VSS_esc2 VSS_esc2 nmos l=0.14u w=1.19u m=1
        MN3 N$4 A1 N$5 VSS_esc2 nmos l=0.14u w=1.19u m=1
        MP2 Y A1 VDD_esc1 VDD_esc1 pmos l=0.14u w=1.26u m=1
        MP1 Y A0 VDD_esc1 VDD_esc1 pmos l=0.14u w=1.26u m=1
.ends nand03

*
* Component pathname : $GDKGATES/inv01
*
.subckt inv01  Y A VDD_esc1 VSS_esc2

        MP1 Y A VDD_esc1 VDD_esc1 pmos l=0.14u w=0.77u m=1
        MN1 Y A VSS_esc2 VSS_esc2 nmos l=0.14u w=0.35u m=1
.ends inv01

*
* Component pathname : $GDKGATES/xor2
*
.subckt xor2  Y A0 A1 VDD_esc1 VSS_esc2

        MN5 N$6 A1 VSS_esc2 VSS_esc2 nmos l=0.14u w=0.77u m=1
        MN4 N$7 A0 N$6 VSS_esc2 nmos l=0.14u w=0.77u m=1
        MP4 N$7 A1 VDD_esc1 VDD_esc1 pmos l=0.14u w=1.19u m=1
        MP3 N$7 A0 VDD_esc1 VDD_esc1 pmos l=0.14u w=1.19u m=1
        MP1 Y N$4 VDD_esc1 VDD_esc1 pmos l=0.14u w=0.77u m=1
        MN3 N$3 N$7 VSS_esc2 VSS_esc2 nmos l=0.14u w=0.77u m=1
        MN2 N$4 A1 N$3 VSS_esc2 nmos l=0.14u w=0.77u m=1
        MN1 N$4 A0 N$3 VSS_esc2 nmos l=0.14u w=0.77u m=1
        MP6 N$4 A1 N$1 VDD_esc1 pmos l=0.14u w=2.24u m=1
        MP2 N$4 N$7 VDD_esc1 VDD_esc1 pmos l=0.14u w=1.19u m=1
        MP5 N$1 A0 VDD_esc1 VDD_esc1 pmos l=0.14u w=2.24u m=1
        MN6 Y N$4 VSS_esc2 VSS_esc2 nmos l=0.14u w=0.35u m=1
.ends xor2

*
* Component pathname : $GDKGATES/inv02
*
.subckt inv02  Y A VDD_esc1 VSS_esc2

        MP1 Y A VDD_esc1 VDD_esc1 pmos l=0.14u w=1.54u m=1
        MN1 Y A VSS_esc2 VSS_esc2 nmos l=0.14u w=0.77u m=1
.ends inv02

*
* Component pathname : $GDKGATES/nand04
*
.subckt nand04  Y A0 A1 A2 A3 VDD_esc1 VSS_esc2

        MP4 Y A3 VDD_esc1 VDD_esc1 pmos l=0.14u w=1.68u m=1
        MP3 Y A2 VDD_esc1 VDD_esc1 pmos l=0.14u w=1.68u m=1
        MN2 N$2 A3 VSS_esc2 VSS_esc2 nmos l=0.14u w=1.61u m=1
        MN1 N$9 A2 N$2 VSS_esc2 nmos l=0.14u w=1.61u m=1
        MN3 Y A0 N$6 VSS_esc2 nmos l=0.14u w=1.61u m=1
        MP2 Y A1 VDD_esc1 VDD_esc1 pmos l=0.14u w=1.68u m=1
        MP1 Y A0 VDD_esc1 VDD_esc1 pmos l=0.14u w=1.68u m=1
        MN4 N$6 A1 N$9 VSS_esc2 nmos l=0.14u w=1.61u m=1
.ends nand04

*
* Component pathname : $GDKGATES/and04
*
.subckt and04  Y A0 A1 A2 A3 VDD_esc1 VSS_esc2

        MN4 N$6 A1 N$7 VSS_esc2 nmos l=0.14u w=1.61u m=1
        MN3 N$11 A0 N$6 VSS_esc2 nmos l=0.14u w=1.61u m=1
        MP4 N$11 A3 VDD_esc1 VDD_esc1 pmos l=0.14u w=1.75u m=1
        MP3 N$11 A2 VDD_esc1 VDD_esc1 pmos l=0.14u w=1.75u m=1
        MN2 N$2 A3 VSS_esc2 VSS_esc2 nmos l=0.14u w=1.61u m=1
        MN1 N$7 A2 N$2 VSS_esc2 nmos l=0.14u w=1.61u m=1
        MN5 Y N$11 VSS_esc2 VSS_esc2 nmos l=0.14u w=0.35u m=1
        MP2 N$11 A1 VDD_esc1 VDD_esc1 pmos l=0.14u w=1.75u m=1
        MP1 N$11 A0 VDD_esc1 VDD_esc1 pmos l=0.14u w=1.75u m=1
        MP5 Y N$11 VDD_esc1 VDD_esc1 pmos l=0.14u w=0.77u m=1
.ends and04

*
* Component pathname : $GDKGATES/nor02
*
.subckt nor02  Y A0 A1 VDD_esc1 VSS_esc2

        MN2 Y A0 VSS_esc2 VSS_esc2 nmos l=0.14u w=0.35u m=1
        MN1 Y A1 VSS_esc2 VSS_esc2 nmos l=0.14u w=0.35u m=1
        MP2 Y A1 N$1 VDD_esc1 pmos l=0.14u w=1.19u m=1
        MP1 N$1 A0 VDD_esc1 VDD_esc1 pmos l=0.14u w=1.19u m=1
.ends nor02

*
* Component pathname : $GDKGATES/oai22
*
.subckt oai22  Y A0 A1 B0 B1 VDD_esc1 VSS_esc2

        MP4 Y B1 N$5 VDD_esc1 pmos l=0.14u w=2.03u m=1
        MN3 N$7 B0 VSS_esc2 VSS_esc2 nmos l=0.14u w=0.77u m=1
        MN2 Y A1 N$7 VSS_esc2 nmos l=0.14u w=0.77u m=1
        MN1 Y A0 N$7 VSS_esc2 nmos l=0.14u w=0.77u m=1
        MP3 N$5 B0 VDD_esc1 VDD_esc1 pmos l=0.14u w=2.03u m=1
        MP2 Y A1 N$6 VDD_esc1 pmos l=0.14u w=2.03u m=1
        MP1 N$6 A0 VDD_esc1 VDD_esc1 pmos l=0.14u w=2.03u m=1
        MN4 N$7 B1 VSS_esc2 VSS_esc2 nmos l=0.14u w=0.77u m=1
.ends oai22

*
* Component pathname : $GDKGATES/aoi22
*
.subckt aoi22  Y A0 A1 B0 B1 VDD_esc1 VSS_esc2

        M_I$13 Y B1 N$6 VDD_esc1 pmos l=0.14u w=1.19u m=1
        M_I$12 N$1 A1 VSS_esc2 VSS_esc2 nmos l=0.14u w=0.77u m=1
        M_I$11 Y A0 N$1 VSS_esc2 nmos l=0.14u w=0.77u m=1
        M_I$14 Y B0 N$2 VSS_esc2 nmos l=0.14u w=0.77u m=1
        M_I$7 Y B0 N$6 VDD_esc1 pmos l=0.14u w=1.19u m=1
        M_I$6 N$6 A1 VDD_esc1 VDD_esc1 pmos l=0.14u w=1.19u m=1
        M_I$5 N$6 A0 VDD_esc1 VDD_esc1 pmos l=0.14u w=1.19u m=1
        M_I$4 N$2 B1 VSS_esc2 VSS_esc2 nmos l=0.14u w=0.77u m=1
.ends aoi22

*
* Component pathname : $GDKGATES/aoi21
*
.subckt aoi21  Y A0 A1 B0 VDD_esc1 VSS_esc2

        M_I$11 Y A0 N$2 VSS_esc2 nmos l=0.14u w=0.77u m=1
        M_I$7 Y B0 N$1 VDD_esc1 pmos l=0.14u w=1.19u m=1
        M_I$6 N$1 A1 VDD_esc1 VDD_esc1 pmos l=0.14u w=1.19u m=1
        M_I$5 N$1 A0 VDD_esc1 VDD_esc1 pmos l=0.14u w=1.19u m=1
        M_I$4 Y B0 VSS_esc2 VSS_esc2 nmos l=0.14u w=0.35u m=1
        M_I$12 N$2 A1 VSS_esc2 VSS_esc2 nmos l=0.14u w=0.77u m=1
.ends aoi21

*
* Component pathname : $GDKGATES/nor03
*
.subckt nor03  Y A0 A1 A2 VDD_esc1 VSS_esc2

        MP3 Y A2 N$3 VDD_esc1 pmos l=0.14u w=1.68u m=1
        MN2 Y A1 VSS_esc2 VSS_esc2 nmos l=0.14u w=0.42u m=1
        MN1 Y A2 VSS_esc2 VSS_esc2 nmos l=0.14u w=0.42u m=1
        MP2 N$3 A1 N$1 VDD_esc1 pmos l=0.14u w=1.68u m=1
        MP1 N$1 A0 VDD_esc1 VDD_esc1 pmos l=0.14u w=1.68u m=1
        MN3 Y A0 VSS_esc2 VSS_esc2 nmos l=0.14u w=0.42u m=1
.ends nor03

*
* Component pathname : $GDKGATES/aoi221
*
.subckt aoi221  Y A0 A1 B0 B1 C0 VDD_esc1 VSS_esc2

        MN5 Y C0 VSS_esc2 VSS_esc2 nmos l=0.14u w=0.35u m=1
        MN4 N$4 B1 VSS_esc2 VSS_esc2 nmos l=0.14u w=0.77u m=1
        MN3 Y B0 N$4 VSS_esc2 nmos l=0.14u w=0.77u m=1
        MN2 N$3 A1 VSS_esc2 VSS_esc2 nmos l=0.14u w=0.91u m=1
        MN1 Y A0 N$3 VSS_esc2 nmos l=0.14u w=0.91u m=1
        MP5 Y C0 N$2 VDD_esc1 pmos l=0.14u w=1.61u m=1
        MP4 N$2 B0 N$10 VDD_esc1 pmos l=0.14u w=1.61u m=1
        MP3 N$2 B1 N$10 VDD_esc1 pmos l=0.14u w=1.61u m=1
        MP2 N$10 A1 VDD_esc1 VDD_esc1 pmos l=0.14u w=1.61u m=1
        MP1 N$10 A0 VDD_esc1 VDD_esc1 pmos l=0.14u w=1.61u m=1
.ends aoi221

*
* Component pathname : $GDKGATES/and02
*
.subckt and02  Y A0 A1 VDD_esc1 VSS_esc2

        MN3 Y N$1 VSS_esc2 VSS_esc2 nmos l=0.14u w=0.35u m=1
        MN2 N$6 A1 VSS_esc2 VSS_esc2 nmos l=0.14u w=0.77u m=1
        MN1 N$1 A0 N$6 VSS_esc2 nmos l=0.14u w=0.77u m=1
        MP3 Y N$1 VDD_esc1 VDD_esc1 pmos l=0.14u w=0.77u m=1
        MP2 N$1 A1 VDD_esc1 VDD_esc1 pmos l=0.14u w=1.05u m=1
        MP1 N$1 A0 VDD_esc1 VDD_esc1 pmos l=0.14u w=1.05u m=1
.ends and02

*
* Component pathname : $GDKGATES/and03
*
.subckt and03  Y A0 A1 A2 VDD_esc1 VSS_esc2

        MP3 A A2 VDD_esc1 VDD_esc1 pmos l=0.14u w=1.4u m=1
        MN2 A A0 N$214 VSS_esc2 nmos l=0.14u w=1.19u m=1
        MN1 N$215 A2 VSS_esc2 VSS_esc2 nmos l=0.14u w=1.19u m=1
        MN3 N$214 A1 N$215 VSS_esc2 nmos l=0.14u w=1.19u m=1
        MN4 Y A VSS_esc2 VSS_esc2 nmos l=0.14u w=0.35u m=1
        MP2 A A1 VDD_esc1 VDD_esc1 pmos l=0.14u w=1.4u m=1
        MP1 A A0 VDD_esc1 VDD_esc1 pmos l=0.14u w=1.4u m=1
        MP4 Y A VDD_esc1 VDD_esc1 pmos l=0.14u w=0.77u m=1
.ends and03

*
* Component pathname : $GDKGATES/dffr
*
.subckt dffr  Q QB CLK D R VDD_esc1 VSS_esc2

        MN17 N$25 bclk- N$27 VSS_esc2 nmos l=0.14u w=0.35u m=1
        MP9 N$29 N$28 VDD_esc1 VDD_esc1 pmos l=0.14u w=0.35u m=1
        MP17 N$27 R N$29 VDD_esc1 pmos l=0.14u w=0.35u m=1
        MP8 N$25 bclk N$27 VDD_esc1 pmos l=0.14u w=0.35u m=1
        MN16 N$27 N$28 VSS_esc2 VSS_esc2 nmos l=0.14u w=0.35u m=1
        MN12 N$14 bclk VSS_esc2 VSS_esc2 nmos l=0.14u w=0.35u m=1
        MN11 N$12 bclk- VSS_esc2 VSS_esc2 nmos l=0.14u w=1.19u m=1
        MN10 N$11 D N$12 VSS_esc2 nmos l=0.14u w=1.19u m=1
        MP12 N$11 D N$10 VDD_esc1 pmos l=0.14u w=2.24u m=1
        MP11 N$10 bclk VDD_esc1 VDD_esc1 pmos l=0.14u w=2.24u m=1
        MP13 N$11 N$16 N$18 VDD_esc1 pmos l=0.14u w=0.35u m=1
        MN13 N$11 N$16 N$14 VSS_esc2 nmos l=0.14u w=0.35u m=1
        MN6 N$21 bclk VSS_esc2 VSS_esc2 nmos l=0.14u w=1.19u m=1
        MP4 Q QB VDD_esc1 VDD_esc1 pmos l=0.14u w=1.54u m=1
        MN4 Q QB VSS_esc2 VSS_esc2 nmos l=0.14u w=0.77u m=1
        MN2 bclk bclk- VSS_esc2 VSS_esc2 nmos l=0.14u w=0.77u m=1
        MN7 N$28 N$25 VSS_esc2 VSS_esc2 nmos l=0.14u w=0.35u m=1
        MN9 N$22 N$16 VSS_esc2 VSS_esc2 nmos l=0.14u w=0.35u m=1
        MP10 N$22 N$16 VDD_esc1 VDD_esc1 pmos l=0.14u w=0.77u m=1
        MP15 N$18 bclk- VDD_esc1 VDD_esc1 pmos l=0.14u w=0.35u m=1
        MP14 N$13 N$11 VDD_esc1 VDD_esc1 pmos l=0.14u w=1.05u m=1
        MP1 bclk- CLK VDD_esc1 VDD_esc1 pmos l=0.14u w=1.54u m=1
        MN5 N$25 N$22 N$21 VSS_esc2 nmos l=0.14u w=1.19u m=1
        MN15 N$16 R VSS_esc2 VSS_esc2 nmos l=0.14u w=0.77u m=1
        MP16 N$16 R N$13 VDD_esc1 pmos l=0.14u w=1.05u m=1
        MP2 bclk bclk- VDD_esc1 VDD_esc1 pmos l=0.14u w=1.54u m=1
        MN1 bclk- CLK VSS_esc2 VSS_esc2 nmos l=0.14u w=0.77u m=1
        MN3 QB N$25 VSS_esc2 VSS_esc2 nmos l=0.14u w=0.77u m=1
        MP3 QB N$25 VDD_esc1 VDD_esc1 pmos l=0.14u w=1.54u m=1
        MN14 N$16 N$11 VSS_esc2 VSS_esc2 nmos l=0.14u w=0.77u m=1
        MP7 N$28 N$25 VDD_esc1 VDD_esc1 pmos l=0.14u w=0.77u m=1
        MP6 N$25 N$22 N$23 VDD_esc1 pmos l=0.14u w=2.24u m=1
        MP5 N$23 bclk- VDD_esc1 VDD_esc1 pmos l=0.14u w=2.24u m=1
        MN8 N$27 R VSS_esc2 VSS_esc2 nmos l=0.14u w=0.35u m=1
.ends dffr

*
* Component pathname : $GDKGATES/dffs
*
.subckt dffs  Q QB CLK D S VDD_esc1 VSS_esc2

        MP6 N$11 bclk- VDD_esc1 VDD_esc1 pmos l=0.14u w=2.24u m=1
        MP7 N$12 N$250 N$11 VDD_esc1 pmos l=0.14u w=2.24u m=1
        MP8 N$27 N$12 VDD_esc1 VDD_esc1 pmos l=0.14u w=0.35u m=1
        MN6 N$12 N$250 N$13 VSS_esc2 nmos l=0.14u w=1.19u m=1
        MP12 N$261 D N$17 VDD_esc1 pmos l=0.14u w=2.24u m=1
        MP4 Q QB VDD_esc1 VDD_esc1 pmos l=0.14u w=1.54u m=1
        MP11 N$17 bclk VDD_esc1 VDD_esc1 pmos l=0.14u w=2.24u m=1
        MN2 bclk bclk- VSS_esc2 VSS_esc2 nmos l=0.14u w=0.77u m=1
        MN4 Q QB VSS_esc2 VSS_esc2 nmos l=0.14u w=0.77u m=1
        MN17 N$28 S N$31 VSS_esc2 nmos l=0.14u w=0.35u m=1
        MP15 N$21 bclk- VDD_esc1 VDD_esc1 pmos l=0.14u w=0.35u m=1
        MN13 N$22 bclk VSS_esc2 VSS_esc2 nmos l=0.14u w=0.35u m=1
        MP14 N$26 N$261 VDD_esc1 VDD_esc1 pmos l=0.14u w=1.05u m=1
        MP13 N$261 N$26 N$21 VDD_esc1 pmos l=0.14u w=0.35u m=1
        MP16 N$26 S VDD_esc1 VDD_esc1 pmos l=0.14u w=1.05u m=1
        MN16 N$26 S N$23 VSS_esc2 nmos l=0.14u w=0.77u m=1
        MN3 QB N$12 VSS_esc2 VSS_esc2 nmos l=0.14u w=0.77u m=1
        MP3 QB N$12 VDD_esc1 VDD_esc1 pmos l=0.14u w=1.54u m=1
        MP9 N$12 bclk N$28 VDD_esc1 pmos l=0.14u w=0.35u m=1
        MN10 N$12 bclk- N$28 VSS_esc2 nmos l=0.14u w=0.35u m=1
        MN14 N$261 N$26 N$22 VSS_esc2 nmos l=0.14u w=0.35u m=1
        MN9 N$31 N$27 VSS_esc2 VSS_esc2 nmos l=0.14u w=0.35u m=1
        MN15 N$23 N$261 VSS_esc2 VSS_esc2 nmos l=0.14u w=0.77u m=1
        MN8 N$27 N$12 VSS_esc2 VSS_esc2 nmos l=0.14u w=0.35u m=1
        MN7 N$13 bclk VSS_esc2 VSS_esc2 nmos l=0.14u w=1.19u m=1
        MP17 N$28 N$27 VDD_esc1 VDD_esc1 pmos l=0.14u w=0.35u m=1
        MN11 N$261 D N$19 VSS_esc2 nmos l=0.14u w=1.19u m=1
        MN5 N$250 N$26 VSS_esc2 VSS_esc2 nmos l=0.14u w=0.77u m=1
        MP5 N$250 N$26 VDD_esc1 VDD_esc1 pmos l=0.14u w=1.54u m=1
        MP2 bclk bclk- VDD_esc1 VDD_esc1 pmos l=0.14u w=1.54u m=1
        MN1 bclk- CLK VSS_esc2 VSS_esc2 nmos l=0.14u w=0.77u m=1
        MN12 N$19 bclk- VSS_esc2 VSS_esc2 nmos l=0.14u w=1.19u m=1
        MP1 bclk- CLK VDD_esc1 VDD_esc1 pmos l=0.14u w=1.54u m=1
        MP10 N$28 S VDD_esc1 VDD_esc1 pmos l=0.14u w=0.35u m=1
.ends dffs

*
* Component pathname : $GDKGATES/oai32
*
.subckt oai32  Y A0 A1 A2 B0 B1 VDD_esc1 VSS_esc2

        MN5 Y A2 N$6 VSS_esc2 nmos l=0.14u w=0.77u m=1
        MN4 N$6 B1 VSS_esc2 VSS_esc2 nmos l=0.14u w=0.77u m=1
        MP5 Y B1 N$4 VDD_esc1 pmos l=0.14u w=2.03u m=1
        MN3 N$6 B0 VSS_esc2 VSS_esc2 nmos l=0.14u w=0.77u m=1
        MN2 Y A1 N$6 VSS_esc2 nmos l=0.14u w=0.77u m=1
        MN1 Y A0 N$6 VSS_esc2 nmos l=0.14u w=0.77u m=1
        MP3 Y A2 N$12 VDD_esc1 pmos l=0.14u w=2.73u m=1
        MP2 N$12 A1 N$5 VDD_esc1 pmos l=0.14u w=2.73u m=1
        MP1 N$5 A0 VDD_esc1 VDD_esc1 pmos l=0.14u w=2.73u m=1
        MP4 N$4 B0 VDD_esc1 VDD_esc1 pmos l=0.14u w=2.03u m=1
.ends oai32

*
* Component pathname : $GDKGATES/or04
*
.subckt or04  Y A0 A1 A2 A3 VDD_esc1 VSS_esc2

        MN4 N$9 A3 VSS_esc2 VSS_esc2 nmos l=0.14u w=0.49u m=1
        MP4 N$9 A3 N$6 VDD_esc1 pmos l=0.14u w=3.01u m=1
        MN3 N$9 A0 VSS_esc2 VSS_esc2 nmos l=0.14u w=0.49u m=1
        MP3 N$6 A2 N$3 VDD_esc1 pmos l=0.14u w=3.01u m=1
        MP5 Y N$9 VDD_esc1 VDD_esc1 pmos l=0.14u w=0.77u m=1
        MN2 N$9 A1 VSS_esc2 VSS_esc2 nmos l=0.14u w=0.49u m=1
        MN1 N$9 A2 VSS_esc2 VSS_esc2 nmos l=0.14u w=0.49u m=1
        MP2 N$3 A1 N$1 VDD_esc1 pmos l=0.14u w=3.01u m=1
        MP1 N$1 A0 VDD_esc1 VDD_esc1 pmos l=0.14u w=3.01u m=1
        MN5 Y N$9 VSS_esc2 VSS_esc2 nmos l=0.14u w=0.35u m=1
.ends or04

*
* Component pathname : $GDKGATES/oai21
*
.subckt oai21  Y A0 A1 B0 VDD_esc1 VSS_esc2

        MN1 Y A0 N$7 VSS_esc2 nmos l=0.14u w=0.77u m=1
        MP3 Y B0 VDD_esc1 VDD_esc1 pmos l=0.14u w=1.05u m=1
        MP2 Y A1 N$6 VDD_esc1 pmos l=0.14u w=2.03u m=1
        MP1 N$6 A0 VDD_esc1 VDD_esc1 pmos l=0.14u w=2.03u m=1
        MN2 Y A1 N$7 VSS_esc2 nmos l=0.14u w=0.77u m=1
        MN3 N$7 B0 VSS_esc2 VSS_esc2 nmos l=0.14u w=0.77u m=1
.ends oai21

*
* Component pathname : $GDKGATES/ao22
*
.subckt ao22  Y A0 A1 B0 B1 VDD_esc1 VSS_esc2

        MN4 N$13 B0 N$2 VSS_esc2 nmos l=0.14u w=0.77u m=1
        MP4 N$13 B1 N$6 VDD_esc1 pmos l=0.14u w=1.19u m=1
        MN2 N$1 A1 VSS_esc2 VSS_esc2 nmos l=0.14u w=0.77u m=1
        MN1 N$13 A0 N$1 VSS_esc2 nmos l=0.14u w=0.77u m=1
        MP5 Y N$13 VDD_esc1 VDD_esc1 pmos l=0.14u w=0.77u m=1
        MP3 N$13 B0 N$6 VDD_esc1 pmos l=0.14u w=1.19u m=1
        MP2 N$6 A1 VDD_esc1 VDD_esc1 pmos l=0.14u w=1.19u m=1
        MP1 N$6 A0 VDD_esc1 VDD_esc1 pmos l=0.14u w=1.19u m=1
        MN3 N$2 B1 VSS_esc2 VSS_esc2 nmos l=0.14u w=0.77u m=1
        MN5 Y N$13 VSS_esc2 VSS_esc2 nmos l=0.14u w=0.35u m=1
.ends ao22

*
* Component pathname : $PYXIS_SPT/digicdesign/MAC_BIST
*
.subckt MAC_BIST  multiplierOut[31] multiplierOut[30] multiplierOut[29]
+ multiplierOut[28] multiplierOut[27] multiplierOut[26] multiplierOut[25]
+ multiplierOut[24] multiplierOut[23] multiplierOut[22] multiplierOut[21]
+ multiplierOut[20] multiplierOut[19] multiplierOut[18] multiplierOut[17]
+ multiplierOut[16] multiplierOut[15] multiplierOut[14] multiplierOut[13]
+ multiplierOut[12] multiplierOut[11] multiplierOut[10] multiplierOut[9]
+ multiplierOut[8] multiplierOut[7] multiplierOut[6] multiplierOut[5] multiplierOut[4]
+ multiplierOut[3] multiplierOut[2] multiplierOut[1] multiplierOut[0] tst_output_flag
+ A[15] A[14] A[13] A[12] A[11] A[10] A[9] A[8] A[7] A[6] A[5] A[4] A[3]
+ A[2] A[1] A[0] B[15] B[14] B[13] B[12] B[11] B[10] B[9] B[8] B[7] B[6]
+ B[5] B[4] B[3] B[2] B[1] B[0] clk rst tst_mode

        X_max_inst_instance3_RegC_reg_output_22 mac_out_22 nx3350 clk nx2366
+ VDD VSS dff
        X_max_inst_instance3_RegC_reg_output_23 mac_out_23 nx3364 clk nx2388
+ VDD VSS dff
        X_max_inst_instance3_RegC_reg_output_24 mac_out_24 nx3376 clk nx2410
+ VDD VSS dff
        X_max_inst_instance3_RegC_reg_output_25 mac_out_25 nx3387 clk nx2432
+ VDD VSS dff
        X_ix2389 nx2388 rst nx2384 VDD VSS nor02ii
        X_ix2411 nx2410 rst nx2406 VDD VSS nor02ii
        X_ix2433 nx2432 rst nx2428 VDD VSS nor02ii
        X_ix2975 nx2974 misr_out_19 nx3767 nx3771 misr_out_16 VDD VSS nor04
        X_ix2905 nx2904 nx3466 misr_out_29 misr_out_28 nx3735 VDD VSS nor04
        X_ix3115 nx3114 nx3779 nx3794 nx3809 nx3824 VDD VSS nor04
        X_ix109 nx3851 nx2301 nx3883 VDD VSS nand02
        X_ix3886 nx3887 nx2301 nx3883 VDD VSS nand02
        X_ix3884 nx3885 nx2301 nx3883 VDD VSS nand02
        X_ix3591 nx3590 tst_mode mac_out_25 VDD VSS nand02
        X_ix3596 nx3595 tst_mode mac_out_26 VDD VSS nand02
        X_ix3571 nx3570 tst_mode mac_out_21 VDD VSS nand02
        X_ix3576 nx3575 tst_mode mac_out_22 VDD VSS nand02
        X_ix2429 nx2428 nx3391 nx1193 VDD VSS xnor2
        X_ix1998 nx1997 instance0_MISR_misrreg_17 misr_out_17 nx3887 VDD
+ VSS mux21
        X_ix1988 nx1987 instance0_MISR_misrreg_18 misr_out_18 nx3887 VDD
+ VSS mux21
        X_ix1858 nx1857 instance0_MISR_misrreg_30 misr_out_30 nx3885 VDD
+ VSS mux21
        X_ix1868 nx1867 instance0_MISR_misrreg_31 misr_out_31 nx3885 VDD
+ VSS mux21
        X_ix2038 nx2037 instance0_MISR_misrreg_13 misr_out_13 nx3887 VDD
+ VSS mux21
        X_ix2168 nx2167 instance0_MISR_misrreg_0 misr_out_0 nx3851 VDD VSS mux21
        X_ix2148 nx2147 instance0_MISR_misrreg_2 misr_out_2 nx3851 VDD VSS mux21
        X_ix1558 nx1557 nx2634 instance0_MISR_misrreg_26 nx3881 VDD VSS mux21
        X_ix1548 nx1547 nx2628 instance0_MISR_misrreg_27 nx3881 VDD VSS mux21
        X_ix1598 nx1597 nx2658 instance0_MISR_misrreg_22 nx3881 VDD VSS mux21
        X_ix1588 nx1587 nx2652 instance0_MISR_misrreg_23 nx3881 VDD VSS mux21
        X_ix1578 nx1577 nx2646 instance0_MISR_misrreg_24 nx3881 VDD VSS mux21
        X_ix2473 nx2472 nx3413 nx1197 VDD VSS xnor2
        X_ix2363 nx2362 nx3354 nx1187 VDD VSS xnor2
        X_ix2385 nx2384 nx3368 nx1189 VDD VSS xnor2
        X_ix2407 nx2406 nx3380 nx1191 VDD VSS xnor2
        X_ix1568 nx1567 nx2640 instance0_MISR_misrreg_25 nx3881 VDD VSS mux21
        X_ix3414 nx3413 nx3406 nx3402 nx1195 VDD VSS mux21
        X_ix3425 nx3424 nx3417 nx3413 nx1197 VDD VSS mux21
        X_ix3369 nx3368 nx3358 nx3354 nx1187 VDD VSS mux21
        X_ix3381 nx3380 nx3372 nx3368 nx1189 VDD VSS mux21
        X_ix3392 nx3391 nx3384 nx3380 nx1191 VDD VSS mux21
        X_ix3403 nx3402 nx3395 nx3391 nx1193 VDD VSS mux21
        X_instance0_MISR_reg_last_sig_17 misr_out_17 nx3771 clk nx1997 VDD
+ VSS dff
        X_instance0_MISR_reg_last_sig_18 misr_out_18 nx3767 clk nx1987 VDD
+ VSS dff
        X_instance0_MISR_reg_last_sig_31 misr_out_31 nx3725 clk nx1867 VDD
+ VSS dff
        X_instance0_MISR_reg_last_sig_13 misr_out_13 nx3787 clk nx2037 VDD
+ VSS dff
        X_instance0_MISR_reg_last_sig_0 misr_out_0 nx3836 clk nx2167 VDD
+ VSS dff
        X_instance0_MISR_reg_last_sig_2 misr_out_2 nx3829 clk nx2147 VDD
+ VSS dff
        X_max_inst_instance3_RegC_reg_output_26 mac_out_26 nx3398 clk nx2454
+ VDD VSS dff
        X_max_inst_instance3_RegC_reg_output_27 mac_out_27 nx3409 clk nx2476
+ VDD VSS dff
        X_ix3718 nx3717 rst nx3883 VDD VSS or02
        X_ix2455 nx2454 rst nx2450 VDD VSS nor02ii
        X_ix2477 nx2476 rst nx2472 VDD VSS nor02ii
        X_ix2367 nx2366 rst nx2362 VDD VSS nor02ii
        X_ix3581 nx3580 tst_mode mac_out_23 VDD VSS nand02
        X_ix3586 nx3585 tst_mode mac_out_24 VDD VSS nand02
        X_ix3407 nx3406 nx3869 nx1564 VDD VSS nand02
        X_ix3418 nx3417 nx3869 nx1542 VDD VSS nand02
        X_ix3385 nx3384 nx3869 nx1594 VDD VSS nand02
        X_ix3396 nx3395 nx3869 nx1582 VDD VSS nand02
        X_ix3467 nx3466 misr_out_30 tst_mode nx3725 VDD VSS nand03
        X_ix2302 nx2301 rst VDD VSS inv01
        X_ix2635 nx2634 nx3590 instance0_MISR_misrreg_27 VDD VSS xnor2
        X_ix2629 nx2628 nx3595 instance0_MISR_misrreg_28 VDD VSS xnor2
        X_ix2659 nx2658 nx3570 instance0_MISR_misrreg_23 VDD VSS xnor2
        X_ix2653 nx2652 nx3575 instance0_MISR_misrreg_24 VDD VSS xnor2
        X_ix2647 nx2646 nx3580 instance0_MISR_misrreg_25 VDD VSS xnor2
        X_ix2641 nx2640 nx3585 instance0_MISR_misrreg_26 VDD VSS xnor2
        X_ix2451 nx2450 nx3402 nx1195 VDD VSS xnor2
        X_ix2463 nx1195 nx3398 nx3406 VDD VSS xor2
        X_ix2485 nx1197 nx3409 nx3417 VDD VSS xor2
        X_ix2375 nx1187 nx3350 nx3358 VDD VSS xor2
        X_ix2397 nx1189 nx3364 nx3372 VDD VSS xor2
        X_ix2419 nx1191 nx3376 nx3384 VDD VSS xor2
        X_ix2441 nx1193 nx3387 nx3395 VDD VSS xor2
        X_ix3882 nx3883 nx3845 VDD VSS inv02
        X_ix3780 nx3779 misr_out_15 misr_out_14 nx3787 misr_out_12 VDD VSS nand04
        X_ix3825 nx3824 misr_out_3 nx3829 misr_out_1 nx3836 VDD VSS nand04
        X_ix3117 tst_output_flag nx2904 nx2940 nx2974 nx3114 VDD VSS and04
        X_ix2689 nx2688 nx3545 instance0_MISR_misrreg_18 VDD VSS xnor2
        X_ix2683 nx2682 nx3550 instance0_MISR_misrreg_19 VDD VSS xnor2
        X_ix2677 nx2676 nx3555 instance0_MISR_misrreg_20 VDD VSS xnor2
        X_ix2671 nx2670 nx3560 instance0_MISR_misrreg_21 VDD VSS xnor2
        X_ix2665 nx2664 nx3565 instance0_MISR_misrreg_22 VDD VSS xnor2
        X_ix2297 nx2296 nx2294 nx3313 VDD VSS xnor2
        X_ix3280 nx3279 nx3281 nx3284 VDD VSS xnor2
        X_ix2209 nx2208 nx2206 nx3143 VDD VSS xnor2
        X_ix3084 nx3083 nx3085 nx3088 VDD VSS xnor2
        X_ix2253 nx2252 nx2250 nx3243 VDD VSS xnor2
        X_ix3190 nx3188 nx3191 nx3195 VDD VSS xnor2
        X_ix1678 nx1677 nx2706 instance0_MISR_misrreg_14 nx3881 VDD VSS mux21
        X_ix1668 nx1667 nx2700 instance0_MISR_misrreg_15 nx3881 VDD VSS mux21
        X_ix1658 nx1657 nx2694 instance0_MISR_misrreg_16 nx3881 VDD VSS mux21
        X_ix1648 nx1647 nx2688 instance0_MISR_misrreg_17 nx3881 VDD VSS mux21
        X_ix1638 nx1637 nx2682 instance0_MISR_misrreg_18 nx3881 VDD VSS mux21
        X_ix1628 nx1627 nx2676 instance0_MISR_misrreg_19 nx3881 VDD VSS mux21
        X_ix1618 nx1617 nx2670 instance0_MISR_misrreg_20 nx3881 VDD VSS mux21
        X_ix1608 nx1607 nx2664 instance0_MISR_misrreg_21 nx3881 VDD VSS mux21
        X_max_inst_instance3_RegC_reg_output_19 mac_out_19 nx3305 clk nx2300
+ VDD VSS dff
        X_max_inst_instance3_RegC_reg_output_18 mac_out_18 nx3276 clk nx2278
+ VDD VSS dff
        X_max_inst_instance3_RegC_reg_output_15 mac_out_15 nx3132 clk nx2212
+ VDD VSS dff
        X_max_inst_instance3_RegC_reg_output_14 mac_out_14 nx3080 clk nx2190
+ VDD VSS dff
        X_max_inst_instance3_RegC_reg_output_17 mac_out_17 nx3232 clk nx2256
+ VDD VSS dff
        X_max_inst_instance3_RegC_reg_output_16 mac_out_16 nx3184 clk nx2234
+ VDD VSS dff
        X_ix2279 nx2278 rst nx3279 VDD VSS nor02
        X_ix2191 nx2190 rst nx3083 VDD VSS nor02
        X_ix2235 nx2234 rst nx3188 VDD VSS nor02
        X_ix3240 nx3239 nx1722 VDD VSS inv01
        X_ix3314 nx3313 nx3305 nx1674 VDD VSS xor2
        X_ix3285 nx3284 nx3276 nx1690 VDD VSS xor2
        X_ix3144 nx3143 nx3132 nx1742 VDD VSS xor2
        X_ix3089 nx3088 nx3080 nx1768 VDD VSS xor2
        X_ix3244 nx3243 nx3232 nx1706 VDD VSS xor2
        X_ix3196 nx3195 nx3184 nx1722 VDD VSS xor2
        X_ix2301 nx2300 rst nx2296 VDD VSS nor02ii
        X_ix2213 nx2212 rst nx2208 VDD VSS nor02ii
        X_ix2257 nx2256 rst nx2252 VDD VSS nor02ii
        X_ix2295 nx2294 nx3281 nx3284 nx3310 nx3276 VDD VSS oai22
        X_ix2207 nx2206 nx3085 nx3088 nx3139 nx3080 VDD VSS oai22
        X_ix2251 nx2250 nx3191 nx3195 nx3239 nx3184 VDD VSS oai22
        X_ix3330 nx3329 nx1674 mac_out_19 nx2294 nx1183 VDD VSS aoi22
        X_ix3192 nx3191 nx1742 mac_out_15 nx2206 nx1175 VDD VSS aoi22
        X_ix3282 nx3281 nx1706 mac_out_17 nx2250 nx1179 VDD VSS aoi22
        X_ix3531 nx3530 tst_mode mac_out_13 VDD VSS nand02
        X_ix3536 nx3535 tst_mode mac_out_14 VDD VSS nand02
        X_ix3541 nx3540 tst_mode mac_out_15 VDD VSS nand02
        X_ix3546 nx3545 tst_mode mac_out_16 VDD VSS nand02
        X_ix3551 nx3550 tst_mode mac_out_17 VDD VSS nand02
        X_ix3556 nx3555 tst_mode mac_out_18 VDD VSS nand02
        X_ix3561 nx3560 tst_mode mac_out_19 VDD VSS nand02
        X_ix3566 nx3565 tst_mode mac_out_20 VDD VSS nand02
        X_ix2309 nx1183 nx3313 VDD VSS inv01
        X_ix3311 nx3310 nx1690 VDD VSS inv01
        X_ix2221 nx1175 nx3143 VDD VSS inv01
        X_ix3140 nx3139 nx1768 VDD VSS inv01
        X_ix2265 nx1179 nx3243 VDD VSS inv01
        X_ix2707 nx2706 nx3530 instance0_MISR_misrreg_15 VDD VSS xnor2
        X_ix2701 nx2700 nx3535 instance0_MISR_misrreg_16 VDD VSS xnor2
        X_ix2695 nx2694 nx3540 instance0_MISR_misrreg_17 VDD VSS xnor2
        X_ix3258 nx3257 nx1442 VDD VSS inv01
        X_ix2551 nx2550 nx3446 nx2548 VDD VSS xnor2
        X_ix3460 nx3459 mac_out_31 nx3252 VDD VSS xnor2
        X_ix3456 nx3455 nx3457 nx3459 VDD VSS xnor2
        X_ix2495 nx2494 nx3424 nx1199 VDD VSS xnor2
        X_ix2523 nx2522 nx3435 nx2520 VDD VSS xnor2
        X_ix3293 nx3292 nx3294 nx3296 VDD VSS xnor2
        X_ix3321 nx3320 nx1524 nx1530 VDD VSS xnor2
        X_ix3254 nx3253 nx3255 nx3259 VDD VSS xnor2
        X_ix3204 nx3203 nx3205 nx3209 VDD VSS xnor2