* File: miniALU.pex.netlist.pex
* Created: Wed Nov 13 15:49:30 2019
* Program "Calibre xRC"
* Version "v2013.4_26.18"
* Nominal Temperature: 27C
* Circuit Temperature: 27C
* 
.subckt PM_MINIALU_X40.6 4 8 14 16
c0 41 0 0.295457f
c1 39 0 0.074186f
c2 37 0 0.0222495f
c3 36 0 0.254424f
c4 34 0 0.127492f
c5 26 0 0.206452f
c6 24 0 0.03192f
c7 23 0 0.0390495f
c8 22 0 0.140902f
c9 21 0 0.120217f
c10 20 0 0.03192f
c11 17 0 0.146454f
c12 13 0 0.0455407f
c13 12 0 0.209659f
c14 8 0 0.376694f
c15 4 0 0.381412f
r16 39 41 0.0451795
r17 32 37 0.0338756
r18 32 41 0.605714
r19 29 37 0.00880368
r20 29 36 0.533333
r21 24 36 0.0451795
r22 24 26 0.12
r23 22 37 0.0338756
r24 22 23 0.287619
r25 21 23 0.0446983
r26 20 34 0.0451795
r27 20 21 0.253333
r28 17 43 0.147922
r29 17 48 8.81074
r30 17 46 8.81074
r31 17 39 11.07
r32 17 34 7.805
r33 17 26 5.17667
r34 16 17 1.29176
r35 14 43 1.67935
r36 12 13 11.2903
r37 12 48 65
r38 8 46 70
r39 4 13 57.5
.ends

.subckt PM_MINIALU_X40.8 1 2
c0 19 0 0.056653f
c1 15 0 0.127492f
c2 13 0 0.03192f
c3 12 0 0.03801f
c4 11 0 0.20324f
c5 10 0 0.056653f
c6 6 0 0.127492f
c7 4 0 0.03192f
r8 18 19 0.12
r9 13 19 0.0425897
r10 13 15 0.12
r11 11 18 0.0446983
r12 11 12 0.346667
r13 9 12 0.0446983
r14 9 10 0.12
r15 4 10 0.0425897
r16 4 6 0.12
r17 3 20 0.147922
r18 3 15 7.805
r19 3 6 7.805
r20 2 3 1.82727
r21 1 20 1.67935
.ends

.subckt PM_MINIALU_X41.6 4 8 14 16
c0 41 0 0.287596f
c1 39 0 0.0728f
c2 37 0 0.02121f
c3 36 0 0.25518f
c4 34 0 0.129172f
c5 26 0 0.206452f
c6 24 0 0.03192f
c7 23 0 0.03801f
c8 22 0 0.137175f
c9 21 0 0.120003f
c10 20 0 0.03192f
c11 17 0 0.14595f
c12 13 0 0.0455407f
c13 12 0 0.208917f
c14 8 0 0.376694f
c15 4 0 0.380852f
r16 39 41 0.0451795
r17 32 37 0.0338756
r18 32 41 0.605714
r19 29 37 0.00880368
r20 29 36 0.533333
r21 24 36 0.0451795
r22 24 26 0.12
r23 22 37 0.0338756
r24 22 23 0.287619
r25 21 23 0.0446983
r26 20 34 0.0451795
r27 20 21 0.253333
r28 17 43 0.147922
r29 17 48 8.81074
r30 17 46 8.81074
r31 17 39 11.07
r32 17 34 7.805
r33 17 26 5.17667
r34 16 17 1.29176
r35 14 43 1.67935
r36 12 13 11.2903
r37 12 48 65
r38 8 46 70
r39 4 13 57.5
.ends

.subckt PM_MINIALU_X41.8 1 2
c0 19 0 0.056653f
c1 15 0 0.127492f
c2 13 0 0.03192f
c3 12 0 0.03801f
c4 11 0 0.20324f
c5 10 0 0.056653f
c6 6 0 0.12845f
c7 4 0 0.032634f
r8 18 19 0.12
r9 13 19 0.0425897
r10 13 15 0.12
r11 11 18 0.0446983
r12 11 12 0.346667
r13 9 12 0.0446983
r14 9 10 0.12
r15 4 10 0.0425897
r16 4 6 0.12
r17 3 20 0.147922
r18 3 15 7.805
r19 3 6 7.805
r20 2 3 1.82727
r21 1 20 1.67935
.ends

.subckt PM_MINIALU_1 4 8 10 12
c0 37 0 0.0728f
c1 35 0 0.02121f
c2 27 0 0.088496f
c3 26 0 0.240368f
c4 22 0 0.206452f
c5 20 0 0.03192f
c6 18 0 0.205155f
c7 17 0 0.03801f
c8 16 0 0.12722f
c9 15 0 0.418084f
c10 13 0 0.1365f
c11 8 0 0.612272f
c12 4 0 0.747596f
r13 28 35 0.0338756
r14 27 37 0.0451795
r15 27 28 0.186667
r16 25 35 0.00880368
r17 25 26 0.506667
r18 20 26 0.0425897
r19 20 22 0.12
r20 18 29 0.106667
r21 16 35 0.0338756
r22 16 17 0.266667
r23 15 17 0.0446983
r24 14 29 0.0046983
r25 14 15 0.88
r26 13 40 0.147922
r27 13 45 8.71929
r28 13 43 8.71929
r29 13 37 11.07
r30 13 18 7.805
r31 13 22 5.17667
r32 12 13 1.29176
r33 10 40 1.67935
r34 8 45 130
r35 4 43 185
.ends

.subckt PM_MINIALU_VSS 1 2 11 75 76 149 183 217 250 307 308 309 310 311 312 313
+ 511
c0 596 0 0.0974446f
c1 591 0 0.06496f
c2 586 0 0.0696f
c3 577 0 0.32102f
c4 574 0 0.26579f
c5 511 0 0.062016f
c6 508 0 0.100352f
c7 505 0 0.0784f
c8 504 0 1.18668f
c9 493 0 1.08241f
c10 491 0 0.0917f
c11 489 0 0.064206f
c12 488 0 0.02912f
c13 487 0 0.042f
c14 486 0 0.064206f
c15 485 0 0.0777f
c16 484 0 0.07486f
c17 482 0 0.064206f
c18 480 0 0.07784f
c19 478 0 0.02912f
c20 477 0 0.042f
c21 476 0 0.064206f
c22 475 0 0.0777f
c23 474 0 0.43902f
c24 473 0 0.064206f
c25 471 0 0.709788f
c26 465 0 1.42207f
c27 460 0 0.158284f
c28 457 0 0.085164f
c29 451 0 0.49059f
c30 448 0 0.209728f
c31 446 0 0.02912f
c32 439 0 0.074753f
c33 435 0 0.127492f
c34 433 0 0.03192f
c35 431 0 0.47764f
c36 428 0 0.032524f
c37 425 0 0.48254f
c38 420 0 0.127492f
c39 418 0 0.02912f
c40 413 0 0.45349f
c41 412 0 0.062988f
c42 411 0 0.03192f
c43 408 0 0.127492f
c44 406 0 0.03192f
c45 405 0 0.032524f
c46 400 0 0.27055f
c47 399 0 0.38594f
c48 396 0 0.127492f
c49 394 0 0.02912f
c50 388 0 0.70794f
c51 384 0 0.709788f
c52 270 0 0.0694956f
c53 265 0 0.136916f
c54 263 0 0.03136f
c55 237 0 0.064206f
c56 232 0 0.127492f
c57 230 0 0.02912f
c58 204 0 0.0683565f
c59 202 0 0.0816912f
c60 200 0 0.030968f
c61 170 0 0.0653379f
c62 168 0 0.078218f
c63 166 0 0.02912f
c64 124 0 0.064206f
c65 123 0 0.02912f
c66 121 0 0.064206f
c67 120 0 0.02912f
c68 119 0 0.042f
c69 113 0 0.127492f
c70 111 0 0.02912f
c71 110 0 0.085164f
c72 104 0 0.45034f
c73 99 0 0.12845f
c74 97 0 0.029834f
c75 96 0 0.08634f
c76 50 0 0.064206f
c77 49 0 0.02912f
c78 48 0 0.042f
c79 47 0 0.064206f
c80 46 0 0.02912f
c81 45 0 0.042f
c82 39 0 0.127492f
c83 37 0 0.02912f
c84 36 0 0.085164f
c85 30 0 0.45034f
c86 25 0 0.127492f
c87 23 0 0.02912f
c88 22 0 0.08634f
c89 11 0 0.19712f
r90 591 596 0.68
r91 586 591 0.68
r92 511 513 0.012
r93 508 596 0.189414
r94 507 508 0.189414
r95 505 507 0.0366371
r96 504 513 0.0157415
r97 504 505 2.853
r98 496 574 0.0618681
r99 492 493 3.086
r100 490 501 0.0662857
r101 490 491 0.0132241
r102 488 489 0.114286
r103 480 482 0.0414583
r104 478 482 0.114286
r105 471 574 0.0172527
r106 468 469 0.16
r107 466 487 0.0149881
r108 465 491 0.0132241
r109 460 489 0.0414583
r110 457 488 0.0414583
r111 456 487 0.0313149
r112 456 457 0.13
r113 452 485 0.0132241
r114 452 454 0.108
r115 451 487 0.0149881
r116 451 454 0.136
r117 446 486 0.0414583
r118 446 448 0.12
r119 444 485 0.0346762
r120 444 486 0.114286
r121 440 484 0.0114292
r122 440 442 0.048
r123 438 484 0.0385677
r124 438 439 0.158095
r125 433 439 0.0425897
r126 433 435 0.12
r127 432 477 0.0149881
r128 431 485 0.0132241
r129 431 432 0.232
r130 428 478 0.0414583
r131 427 477 0.0313149
r132 427 428 0.05
r133 426 475 0.0132241
r134 425 484 0.0114292
r135 425 426 0.24
r136 423 475 0.0346762
r137 423 476 0.114286
r138 418 476 0.0414583
r139 418 420 0.12
r140 414 474 0.0149881
r141 414 416 0.112
r142 413 477 0.0149881
r143 413 416 0.108
r144 411 412 0.133333
r145 406 412 0.0425897
r146 406 408 0.12
r147 405 411 0.0425897
r148 404 474 0.0313149
r149 404 405 0.05
r150 400 402 0.096
r151 399 475 0.0132241
r152 399 402 0.096
r153 394 473 0.0414583
r154 394 396 0.12
r155 392 400 0.0691414
r156 392 473 0.114286
r157 389 491 0.0346762
r158 387 469 0.0403178
r159 385 468 0.0403178
r160 384 442 0.304
r161 313 324 3.94243
r162 270 389 0.114286
r163 268 388 0.28
r164 268 501 0.00571429
r165 263 270 0.0414583
r166 263 265 0.12
r167 235 471 0.072
r168 235 386 0.28
r169 230 237 0.0414583
r170 230 232 0.12
r171 228 574 0.0474055
r172 228 237 0.114286
r173 202 204 0.0414583
r174 200 204 0.114286
r175 198 465 0.172
r176 198 469 0.032
r177 195 200 0.0414583
r178 195 387 0.19
r179 187 211 5.95556
r180 168 170 0.0414583
r181 166 170 0.114286
r182 164 468 0.032
r183 164 466 0.188
r184 161 166 0.0414583
r185 161 385 0.19
r186 153 177 5.95556
r187 123 124 0.114286
r188 120 121 0.114286
r189 119 388 0.0149881
r190 118 577 0.090268
r191 118 122 0.0149881
r192 111 124 0.0414583
r193 111 113 0.12
r194 110 123 0.0414583
r195 109 122 0.0313149
r196 109 110 0.13
r197 105 119 0.0149881
r198 105 107 0.056
r199 104 122 0.0149881
r200 104 107 0.168
r201 97 121 0.0414583
r202 97 99 0.12
r203 96 120 0.0414583
r204 95 119 0.0313149
r205 95 96 0.13
r206 49 50 0.114286
r207 48 384 0.0149881
r208 46 47 0.114286
r209 45 386 0.0149881
r210 37 50 0.0414583
r211 37 39 0.12
r212 36 49 0.0414583
r213 35 48 0.0313149
r214 35 36 0.13
r215 31 45 0.0149881
r216 31 33 0.056
r217 30 48 0.0149881
r218 30 33 0.168
r219 23 47 0.0414583
r220 23 25 0.12
r221 22 46 0.0414583
r222 21 45 0.0313149
r223 21 22 0.13
r224 11 586 0.68
r225 11 577 0.68
r226 11 528 0.558333
r227 11 525 0.295844
r228 11 522 0.558333
r229 11 519 0.295844
r230 11 539 0.744444
r231 11 534 0.744444
r232 11 324 0.295844
r233 11 539 3.28673
r234 11 534 1.95774
r235 11 310 1.79925
r236 11 312 0.244801
r237 11 528 2.19641
r238 11 311 1.64731
r239 11 525 2.36874
r240 11 309 1.57369
r241 11 522 2.19641
r242 11 308 1.64731
r243 11 519 2.36382
r244 11 307 1.57861
r245 11 493 0.0477743
r246 11 501 0.68
r247 11 492 0.0477743
r248 11 496 0.68
r249 11 480 15.61
r250 11 460 5.20333
r251 11 454 1.72556
r252 11 448 5.20333
r253 11 442 2.21857
r254 11 435 7.805
r255 11 420 7.805
r256 11 416 1.553
r257 11 408 7.805
r258 11 402 2.21857
r259 11 396 7.805
r260 11 272 0.295844
r261 11 272 2.36382
r262 11 250 1.57861
r263 11 268 3.8825
r264 11 265 7.805
r265 11 239 0.295844
r266 11 239 2.36382
r267 11 217 1.57861
r268 11 235 3.8825
r269 11 232 7.805
r270 11 211 1.4216
r271 11 187 1.95774
r272 11 183 1.79925
r273 11 202 15.61
r274 11 198 5.17667
r275 11 177 1.4216
r276 11 153 1.95774
r277 11 149 1.79925
r278 11 168 15.61
r279 11 164 5.17667
r280 11 130 0.295844
r281 11 127 0.295844
r282 11 130 2.36874
r283 11 76 1.57369
r284 11 127 2.36874
r285 11 75 1.57369
r286 11 113 7.805
r287 11 107 1.72556
r288 11 99 7.805
r289 11 56 0.295844
r290 11 53 0.295844
r291 11 56 2.36874
r292 11 53 2.36874
r293 11 39 7.805
r294 11 33 1.72556
r295 11 25 7.805
r296 2 11 1.57369
r297 1 11 1.57369
.ends

.subckt PM_MINIALU_VDD 1 11 12 13 95 105 106 107 193 229 268 269 321 322 433 434
+ 435 436 437 438 439 440 630
c0 710 0 0.0984174f
c1 705 0 0.06496f
c2 700 0 0.0696f
c3 630 0 0.089856f
c4 629 0 0.100832f
c5 619 0 0.0777f
c6 616 0 1.09286f
c7 614 0 0.0777f
c8 613 0 0.0777f
c9 612 0 1.49983f
c10 610 0 0.0805f
c11 606 0 0.135952f
c12 604 0 0.0542f
c13 603 0 0.02912f
c14 602 0 0.0777f
c15 601 0 0.02912f
c16 600 0 0.0596f
c17 599 0 0.030128f
c18 598 0 0.042f
c19 597 0 0.064206f
c20 596 0 0.02912f
c21 595 0 0.042f
c22 594 0 0.0805f
c23 593 0 0.02912f
c24 592 0 0.064206f
c25 591 0 2.42581f
c26 586 0 0.19274f
c27 583 0 0.470304f
c28 582 0 0.32124f
c29 581 0 0.062988f
c30 580 0 0.03192f
c31 576 0 0.071586f
c32 572 0 0.364372f
c33 568 0 0.19274f
c34 567 0 0.064206f
c35 563 0 0.206452f
c36 556 0 0.38594f
c37 555 0 0.0743796f
c38 551 0 0.377469f
c39 547 0 0.533838f
c40 546 0 0.032524f
c41 545 0 0.02912f
c42 540 0 0.364372f
c43 533 0 0.30544f
c44 532 0 0.062988f
c45 531 0 0.03192f
c46 530 0 0.032524f
c47 529 0 0.03192f
c48 526 0 0.206452f
c49 519 0 0.757444f
c50 518 0 0.062988f
c51 517 0 0.03192f
c52 514 0 0.206452f
c53 511 0 0.2107f
c54 510 0 0.20079f
c55 505 0 0.206452f
c56 502 0 0.032524f
c57 501 0 0.02912f
c58 500 0 0.1237f
c59 499 0 0.16369f
c60 498 0 0.08841f
c61 496 0 0.064206f
c62 495 0 0.064206f
c63 494 0 0.064206f
c64 492 0 0.31004f
c65 491 0 0.13984f
c66 489 0 0.143025f
c67 488 0 0.38134f
c68 349 0 0.02912f
c69 347 0 0.127492f
c70 345 0 0.02912f
c71 343 0 0.127492f
c72 296 0 0.02912f
c73 294 0 0.127492f
c74 292 0 0.030408f
c75 290 0 0.132635f
c76 282 0 0.0664332f
c77 248 0 0.064206f
c78 247 0 0.02912f
c79 245 0 0.127492f
c80 240 0 0.02912f
c81 212 0 0.0646654f
c82 211 0 0.0293342f
c83 209 0 0.128347f
c84 204 0 0.0293342f
c85 162 0 0.020825f
c86 160 0 0.34272f
c87 159 0 0.0577485f
c88 157 0 0.04242f
c89 155 0 0.0513994f
c90 154 0 0.029204f
c91 153 0 0.042f
c92 147 0 0.226192f
c93 142 0 0.275984f
c94 141 0 0.02912f
c95 139 0 0.298814f
c96 138 0 0.0866118f
c97 137 0 0.029204f
c98 132 0 0.365533f
c99 128 0 0.20079f
c100 126 0 0.328898f
c101 124 0 0.275984f
c102 95 0 0.06144f
c103 68 0 0.020825f
c104 66 0 0.042f
c105 65 0 0.0577485f
c106 63 0 0.04452f
c107 61 0 0.0515134f
c108 60 0 0.029624f
c109 59 0 0.042f
c110 53 0 0.227872f
c111 48 0 0.275984f
c112 47 0 0.02912f
c113 45 0 0.306014f
c114 44 0 0.0879708f
c115 43 0 0.029624f
c116 38 0 0.371691f
c117 34 0 0.20079f
c118 32 0 0.328898f
c119 30 0 0.275984f
c120 1 0 0.13568f
r121 705 710 0.68
r122 700 705 0.68
r123 684 685 0.16
r124 629 710 0.189414
r125 629 630 0.189414
r126 615 616 3.086
r127 612 624 0.0822857
r128 612 613 0.0132241
r129 608 610 0.0114292
r130 596 597 0.114286
r131 592 593 0.114286
r132 589 614 0.0132241
r133 587 613 0.0132241
r134 586 614 0.0132241
r135 584 619 0.0132241
r136 582 619 0.0132241
r137 581 610 0.0385677
r138 580 606 0.0451795
r139 580 581 0.133333
r140 577 604 0.0132241
r141 576 604 0.0346762
r142 576 603 0.127347
r143 570 603 0.0414583
r144 570 572 0.24
r145 569 602 0.0132241
r146 568 610 0.0114292
r147 568 569 0.096
r148 567 602 0.0346762
r149 567 601 0.114286
r150 561 601 0.0414583
r151 561 563 0.12
r152 557 600 0.0132241
r153 557 559 0.096
r154 556 604 0.0132241
r155 556 559 0.096
r156 555 600 0.0346762
r157 555 599 0.127347
r158 549 599 0.0414583
r159 549 551 0.24
r160 548 598 0.0149881
r161 547 602 0.0132241
r162 547 548 0.264571
r163 546 598 0.0313149
r164 545 597 0.0414583
r165 545 546 0.05
r166 538 596 0.0414583
r167 538 540 0.24
r168 534 595 0.0149881
r169 534 536 0.08
r170 533 598 0.0149881
r171 533 536 0.072
r172 531 532 0.133333
r173 530 595 0.0313149
r174 529 532 0.0425897
r175 529 530 0.05
r176 524 531 0.0425897
r177 524 526 0.12
r178 520 594 0.0114292
r179 520 522 0.048
r180 519 600 0.0132241
r181 519 522 0.32
r182 518 594 0.0385677
r183 517 518 0.133333
r184 512 517 0.0425897
r185 512 514 0.12
r186 510 595 0.0149881
r187 510 511 0.1
r188 503 593 0.0414583
r189 503 505 0.12
r190 502 511 0.0563178
r191 501 592 0.0414583
r192 501 502 0.05
r193 500 591 0.0963851
r194 499 594 0.0114292
r195 499 500 0.076
r196 498 689 0.0556792
r197 498 591 6.8925
r198 496 614 0.0346762
r199 495 613 0.0346762
r200 494 619 0.0346762
r201 492 589 0.154286
r202 491 685 0.0403178
r203 490 582 0.154286
r204 489 684 0.0403178
r205 488 577 0.189714
r206 447 468 3.84639
r207 438 452 4.13139
r208 436 447 4.13139
r209 349 496 0.114286
r210 347 349 0.0414583
r211 345 495 0.114286
r212 343 345 0.0414583
r213 336 586 0.024
r214 336 587 0.072
r215 296 494 0.114286
r216 294 296 0.0414583
r217 290 292 0.0414583
r218 283 583 0.072
r219 283 584 0.024
r220 282 583 0.063203
r221 282 292 0.114286
r222 247 248 0.114286
r223 245 247 0.0414583
r224 242 624 0.0897143
r225 242 685 0.032
r226 240 248 0.0414583
r227 240 491 0.25
r228 229 230 4.30725
r229 211 212 0.114286
r230 209 211 0.0414583
r231 206 684 0.032
r232 206 608 0.347429
r233 204 212 0.0414583
r234 204 489 0.25
r235 193 194 4.30725
r236 164 188 0.961707
r237 161 162 0.0114583
r238 159 162 0.102857
r239 154 155 0.0914286
r240 153 492 0.0149881
r241 147 161 0.15
r242 142 160 0.0313149
r243 141 159 0.0414583
r244 141 142 0.42
r245 140 157 0.0149881
r246 139 160 0.0149881
r247 139 140 0.148
r248 138 157 0.0313149
r249 137 155 0.0414583
r250 137 138 0.13
r251 130 154 0.0414583
r252 130 132 0.24
r253 129 153 0.0149881
r254 128 157 0.0149881
r255 128 129 0.1
r256 124 153 0.0313149
r257 124 126 0.42
r258 112 164 2.86824
r259 112 113 3.96435
r260 108 115 3.9141
r261 106 113 0.161834
r262 105 108 5.23458
r263 95 676 3.50358
r264 95 440 1.50154
r265 95 675 0.665455
r266 95 676 0.61
r267 95 675 3.00981
r268 95 452 0.836571
r269 95 468 8.65091
r270 95 435 1.50154
r271 95 433 1.45993
r272 95 616 0.0477743
r273 95 624 0.68
r274 95 610 1.73444
r275 95 606 7.765
r276 95 563 5.17667
r277 95 540 3.106
r278 95 536 1.561
r279 95 526 5.17667
r280 95 505 5.17667
r281 95 359 3.39335
r282 95 322 1.5187
r283 95 355 3.38789
r284 95 321 1.52416
r285 95 359 0.323221
r286 95 355 0.323221
r287 95 347 7.765
r288 95 343 7.765
r289 95 336 3.9025
r290 95 258 5.69333
r291 95 258 3.59088
r292 95 230 0.323221
r293 95 245 7.765
r294 95 242 5.20333
r295 95 222 5.69333
r296 95 222 3.59088
r297 95 194 0.323221
r298 95 209 7.765
r299 95 206 5.20333
r300 95 182 3.67162
r301 95 115 3.64838
r302 95 182 3.01716
r303 95 107 1.18104
r304 95 188 1.22
r305 95 157 1.561
r306 95 147 5.17667
r307 95 132 3.106
r308 95 126 2.58833
r309 70 94 0.961707
r310 67 68 0.0114583
r311 66 488 0.0149881
r312 65 68 0.102857
r313 60 61 0.0914286
r314 59 490 0.0149881
r315 53 67 0.15
r316 48 66 0.0313149
r317 47 65 0.0414583
r318 47 48 0.42
r319 46 63 0.0149881
r320 45 66 0.0149881
r321 45 46 0.148
r322 44 63 0.0313149
r323 43 61 0.0414583
r324 43 44 0.13
r325 36 60 0.0414583
r326 36 38 0.24
r327 35 59 0.0149881
r328 34 63 0.0149881
r329 34 35 0.1
r330 30 59 0.0313149
r331 30 32 0.42
r332 18 70 2.86824
r333 18 19 3.96435
r334 14 21 3.9141
r335 12 19 0.161834
r336 11 14 5.23458
r337 1 700 0.68
r338 1 689 0.68
r339 1 439 1.20105
r340 1 437 1.20622
r341 1 434 1.50154
r342 1 615 0.0477743
r343 1 619 0.68
r344 1 572 3.106
r345 1 559 2.23
r346 1 551 3.106
r347 1 522 2.23
r348 1 514 5.17667
r349 1 306 3.39335
r350 1 269 1.5187
r351 1 302 3.38789
r352 1 268 1.52416
r353 1 306 0.323221
r354 1 302 0.323221
r355 1 294 7.765
r356 1 290 7.765
r357 1 283 3.9025
r358 1 88 3.67162
r359 1 21 3.64838
r360 1 88 3.01716
r361 1 13 1.18104
r362 1 94 1.22
r363 1 63 1.561
r364 1 53 5.17667
r365 1 38 3.106
r366 1 32 2.58833
.ends

.subckt PM_MINIALU_6 8 12 22 24
c0 62 0 0.180804f
c1 56 0 0.101689f
c2 53 0 0.170683f
c3 52 0 0.0803385f
c4 51 0 0.081993f
c5 50 0 0.03192f
c6 48 0 0.127492f
c7 45 0 0.424195f
c8 44 0 0.278466f
c9 40 0 0.03801f
c10 39 0 0.111575f
c11 34 0 0.127492f
c12 32 0 0.03192f
c13 31 0 0.0386715f
c14 30 0 0.209789f
c15 29 0 0.0763132f
c16 25 0 0.1365f
c17 20 0 0.07182f
c18 16 0 0.07182f
c19 12 0 0.674304f
c20 8 0 0.368719f
c21 5 0 0.144923f
r22 52 54 0.0527007
r23 52 53 0.0527007
r24 48 50 0.0451795
r25 46 52 0.0349998
r26 45 56 0.0638185
r27 45 46 1.1725
r28 44 54 0.586667
r29 41 53 0.36
r30 39 44 0.0446983
r31 39 40 0.146667
r32 37 40 0.0446983
r33 37 51 0.173333
r34 32 51 0.0451795
r35 32 34 0.12
r36 30 41 0.0446983
r37 30 31 0.36
r38 29 31 0.0446983
r39 29 50 0.16
r40 25 64 8.71929
r41 25 62 8.71929
r42 25 56 11.07
r43 25 48 7.805
r44 25 34 7.765
r45 24 25 1.29176
r46 22 25 1.82727
r47 18 20 12.5
r48 14 16 12.5
r49 10 20 0.587288
r50 10 12 118.214
r51 6 16 0.587288
r52 6 8 68.2143
r53 5 18 0.587288
r54 5 64 45.3571
r55 2 14 0.587288
r56 2 62 56.7857
.ends

.subckt PM_MINIALU_7 1 2
c0 19 0 0.037648f
c1 15 0 0.129172f
c2 13 0 0.03192f
c3 12 0 0.03801f
c4 11 0 0.206012f
c5 10 0 0.037648f
c6 6 0 0.127492f
c7 4 0 0.03192f
r8 18 19 0.08
r9 13 19 0.0425897
r10 13 15 0.12
r11 11 18 0.0446983
r12 11 12 0.346667
r13 9 12 0.0446983
r14 9 10 0.08
r15 4 10 0.0425897
r16 4 6 0.12
r17 3 15 7.805
r18 3 6 7.805
r19 2 3 1.67065
r20 1 3 1.82727
.ends

.subckt PM_MINIALU_9 4 8 10 12
c0 39 0 0.06818f
c1 37 0 0.191452f
c2 34 0 0.132569f
c3 32 0 0.075658f
c4 31 0 0.271448f
c5 29 0 0.038598f
c6 28 0 0.1779f
c7 27 0 0.0703954f
c8 26 0 0.0327704f
c9 23 0 0.03801f
c10 17 0 0.364372f
c11 15 0 0.03192f
c12 14 0 0.18438f
c13 8 0 0.700612f
c14 4 0 0.317012f
r15 42 58 1.32058
r16 36 39 0.03
r17 36 37 0.0351795
r18 31 36 0.0158951
r19 30 31 0.573333
r20 28 30 0.0446983
r21 28 29 0.293333
r22 27 29 0.0446983
r23 26 34 0.0451795
r24 26 27 0.146667
r25 23 37 0.4
r26 20 23 0.0446983
r27 20 32 0.16
r28 15 32 0.0451795
r29 15 17 0.24
r30 14 58 0.665455
r31 14 44 3.87454
r32 14 39 11.07
r33 14 34 7.805
r34 14 17 3.106
r35 13 42 2.5258
r36 12 13 4.81284
r37 10 14 1.82727
r38 6 14 11.6236
r39 6 8 187.5
r40 2 44 3.77626
r41 2 4 52.5
.ends

.subckt PM_MINIALU_10 4 9 17 21 36 44 47 53 62 64
c0 177 0 0.932237f
c1 160 0 0.079895f
c2 138 0 0.116725f
c3 131 0 0.0586005f
c4 128 0 0.06405f
c5 127 0 0.0576f
c6 121 0 0.0667265f
c7 117 0 0.06405f
c8 114 0 0.0576f
c9 113 0 0.245472f
c10 112 0 0.0466005f
c11 111 0 0.551072f
c12 110 0 0.061312f
c13 109 0 0.234076f
c14 106 0 0.11578f
c15 98 0 0.31669f
c16 94 0 0.0312608f
c17 91 0 0.0508288f
c18 89 0 0.103713f
c19 85 0 0.08064f
c20 83 0 0.08841f
c21 81 0 0.278378f
c22 80 0 0.09065f
c23 77 0 0.084403f
c24 75 0 0.04508f
c25 74 0 0.081993f
c26 71 0 0.114332f
c27 67 0 0.19794f
c28 66 0 0.06144f
c29 65 0 0.19794f
c30 61 0 0.401774f
c31 60 0 0.154986f
c32 59 0 0.399557f
c33 58 0 0.149054f
c34 56 0 0.0569365f
c35 47 0 0.882906f
c36 39 0 0.127864f
c37 36 0 0.741687f
c38 24 0 0.10004f
c39 23 0 0.29521f
c40 22 0 0.03388f
c41 21 0 0.830024f
c42 15 0 0.277112f
c43 14 0 0.187004f
c44 12 0 0.03192f
c45 11 0 0.260759f
c46 9 0 0.723992f
c47 6 0 0.03192f
c48 5 0 0.207024f
c49 2 0 0.277112f
r50 157 160 0.0289655
r51 127 128 0.68
r52 120 121 0.68
r53 116 117 0.68
r54 114 123 0.0477743
r55 113 127 0.0477743
r56 113 114 0.776
r57 112 120 0.0477743
r58 111 131 0.0477743
r59 111 112 1.708
r60 110 116 0.0477743
r61 109 120 0.0477743
r62 109 110 0.726
r63 97 128 0.0477743
r64 97 98 0.944
r65 95 121 0.0477743
r66 95 177 2.646
r67 93 117 0.0477743
r68 93 94 0.096
r69 85 88 0.0451795
r70 83 165 0.0559551
r71 83 91 0.155
r72 80 89 0.08
r73 80 81 0.586667
r74 78 157 0.0172373
r75 78 89 0.219048
r76 77 157 0.0172373
r77 77 88 0.177143
r78 74 81 0.0446983
r79 74 75 0.0933333
r80 69 75 0.0458951
r81 69 71 0.1
r82 67 147 8.71929
r83 67 145 8.71929
r84 67 106 11.07
r85 67 98 0.0477743
r86 67 106 0.68
r87 66 177 0.0477743
r88 66 160 0.68
r89 66 123 0.68
r90 66 85 15.61
r91 66 71 7.765
r92 65 141 8.71929
r93 65 139 8.71929
r94 65 138 11.07
r95 65 94 0.0477743
r96 65 138 0.68
r97 64 66 1.82525
r98 62 66 3.67543
r99 60 61 7.77778
r100 60 147 47.5
r101 58 59 7.14286
r102 54 56 7.5
r103 53 61 50
r104 47 145 212.5
r105 44 59 48.5714
r106 40 56 0.587288
r107 40 58 45
r108 39 54 0.587288
r109 39 141 40
r110 36 139 182.5
r111 24 91 0.0638185
r112 23 165 0.68
r113 23 131 0.68
r114 23 24 11.07
r115 19 21 127.5
r116 18 23 15.2893
r117 18 21 132.5
r118 15 22 4.23445
r119 15 17 40
r120 14 23 8.67769
r121 13 22 4.23445
r122 13 14 57.5
r123 11 19 5.58729
r124 11 12 70
r125 7 12 5.58729
r126 7 9 165
r127 5 22 1.10046
r128 5 6 65
r129 2 6 5.58729
r130 2 4 40
.ends

.subckt PM_MINIALU_11 1 2 3
c0 21 0 0.184667f
c1 18 0 0.03968f
c2 17 0 0.188021f
c3 15 0 0.196084f
c4 11 0 0.045101f
c5 10 0 0.19621f
c6 7 0 0.188987f
r7 19 21 0.205714
r8 17 19 0.0491642
r9 17 18 0.42
r10 13 15 0.0928571
r11 12 18 0.0491642
r12 12 15 0.205714
r13 10 13 0.0463324
r14 10 11 0.336
r15 5 11 0.0463324
r16 5 7 0.0928571
r17 4 24 0.147922
r18 4 21 7.805
r19 4 15 7.805
r20 4 7 7.805
r21 3 4 1.67065
r22 2 4 1.82727
r23 1 24 1.67935
.ends

.subckt PM_MINIALU_COUT 1 3 22
c0 64 0 0.100369f
c1 59 0 0.0974147f
c2 54 0 0.06496f
c3 49 0 0.0696f
c4 26 0 0.0864f
c5 25 0 0.295969f
c6 22 0 2.39722f
c7 16 0 0.120715f
c8 15 0 0.09065f
c9 14 0 0.43681f
c10 11 0 0.116212f
c11 9 0 0.08361f
c12 8 0 0.154393f
c13 4 0 0.07424f
r14 59 64 0.189414
r15 54 59 0.68
r16 49 54 0.68
r17 26 64 0.189414
r18 25 26 0.52
r19 20 25 0.0190514
r20 20 22 0.711818
r21 16 18 0.0755906
r22 14 15 0.08
r23 9 40 0.0362592
r24 9 11 0.102857
r25 8 40 0.0462305
r26 8 15 0.325714
r27 5 16 0.0121522
r28 5 14 0.92
r29 4 49 0.68
r30 4 40 0.68
r31 4 28 0.16161
r32 4 18 15.61
r33 4 11 7.765
r34 3 28 1.83475
r35 1 4 4.02
.ends

.subckt PM_MINIALU_OUTPUT[0] 1 3 31
c0 75 0 0.10064f
c1 70 0 0.0978688f
c2 65 0 0.06496f
c3 60 0 0.0696f
c4 50 0 0.07488f
c5 48 0 0.09048f
c6 35 0 0.0864f
c7 34 0 0.297405f
c8 31 0 2.43597f
c9 28 0 0.0947385f
c10 27 0 0.14484f
c11 26 0 0.162024f
c12 22 0 0.036f
c13 20 0 0.07434f
c14 19 0 0.03272f
c15 16 0 0.129372f
c16 13 0 0.03666f
c17 12 0 0.232271f
c18 11 0 0.064074f
c19 7 0 0.364372f
c20 5 0 0.03272f
c21 4 0 0.07424f
r22 70 75 0.189414
r23 65 70 0.68
r24 60 65 0.68
r25 47 50 0.0206897
r26 47 48 0.0353605
r27 35 75 0.189414
r28 34 35 0.52
r29 29 34 0.0190514
r30 29 31 0.723864
r31 27 28 0.08
r32 26 28 0.358
r33 23 47 0.0191017
r34 23 27 0.32
r35 22 48 0.2
r36 20 22 0.0446983
r37 19 20 0.166
r38 14 19 0.0433246
r39 14 16 0.00285714
r40 12 26 0.0446983
r41 12 13 0.424
r42 10 13 0.0446983
r43 10 11 0.142
r44 5 11 0.0433246
r45 5 7 0.24
r46 4 60 0.68
r47 4 50 0.68
r48 4 16 7.805
r49 4 7 3.106
r50 3 4 0.757241
r51 1 4 1.82727
.ends

.subckt PM_MINIALU_16 4 7 14 19
c0 55 0 0.182136f
c1 51 0 0.03192f
c2 49 0 0.090275f
c3 42 0 0.099708f
c4 38 0 0.131252f
c5 35 0 0.050318f
c6 31 0 0.208132f
c7 28 0 0.03801f
c8 27 0 0.419901f
c9 26 0 0.08374f
c10 25 0 0.296336f
c11 24 0 0.219553f
c12 22 0 0.206065f
c13 20 0 0.1365f
c14 9 0 0.692743f
c15 2 0 0.277863f
r16 47 49 0.11619
r17 43 45 0.0569288
r18 41 42 0.0933333
r19 36 42 0.0787149
r20 36 38 0.12
r21 35 51 0.106667
r22 29 51 0.0451795
r23 29 31 0.12
r24 27 41 0.0446983
r25 27 28 0.796191
r26 26 45 0.0458148
r27 25 35 0.0446983
r28 25 26 0.533333
r29 24 28 0.0446983
r30 23 49 0.0046983
r31 23 24 0.462857
r32 22 47 0.0046983
r33 21 43 0.0140728
r34 21 22 0.457143
r35 20 59 2.75488
r36 20 57 8.71929
r37 20 55 8.71929
r38 20 45 11.07
r39 20 38 7.765
r40 20 31 5.20333
r41 19 20 1.29176
r42 14 59 3.75269
r43 9 10 7.40741
r44 9 57 200.357
r45 7 55 25
r46 2 10 0.404506
r47 2 4 40
.ends

.subckt PM_MINIALU_18 4 5 6
c0 32 0 0.043983f
c1 31 0 0.044469f
c2 28 0 0.219612f
c3 25 0 0.0441f
c4 24 0 0.200902f
c5 22 0 0.170704f
c6 19 0 0.03192f
c7 16 0 0.03843f
c8 15 0 0.194375f
c9 10 0 0.20841f
c10 8 0 0.0322f
r11 26 28 0.14
r12 24 26 0.0734321
r13 24 25 0.32
r14 20 25 0.0734321
r15 20 22 0.14
r16 19 32 0.0451795
r17 19 22 0.12
r18 17 32 0.0933333
r19 15 17 0.0446983
r20 15 16 0.32
r21 13 16 0.0446983
r22 13 31 0.0933333
r23 8 31 0.0451795
r24 8 10 0.12
r25 7 28 5.17667
r26 7 22 5.17667
r27 7 10 5.17667
r28 6 7 1.18104
r29 5 7 1.29176
r30 4 7 1.29176
.ends

.subckt PM_MINIALU_22 4 5 6
c0 24 0 0.223372f
c1 21 0 0.04396f
c2 20 0 0.197402f
c3 18 0 0.183864f
c4 14 0 0.04424f
c5 13 0 0.197682f
c6 10 0 0.215852f
r7 22 24 0.145714
r8 20 22 0.0755919
r9 20 21 0.32
r10 16 21 0.0755919
r11 16 18 0.145714
r12 15 18 0.134286
r13 13 15 0.0713923
r14 13 14 0.32
r15 8 14 0.0713923
r16 8 10 0.134286
r17 7 24 5.17667
r18 7 18 5.17667
r19 7 10 5.17667
r20 6 7 1.18104
r21 5 7 1.29176
r22 4 7 1.29176
.ends

.subckt PM_MINIALU_INPUT1[0] 14 18 24 28 31 36 66
c0 109 0 0.0972417f
c1 104 0 0.06496f
c2 99 0 0.0696f
c3 89 0 0.0952f
c4 83 0 0.290646f
c5 79 0 0.079344f
c6 75 0 0.294804f
c7 74 0 0.19377f
c8 70 0 0.100604f
c9 69 0 0.0784f
c10 64 0 1.23395f
c11 58 0 1.02976f
c12 54 0 0.0728f
c13 48 0 0.361951f
c14 47 0 0.119737f
c15 45 0 0.33828f
c16 44 0 0.19794f
c17 42 0 0.05586f
c18 39 0 0.1365f
c19 36 0 0.759734f
c20 29 0 0.278309f
c21 26 0 0.261152f
c22 24 0 0.759734f
c23 18 0 0.436712f
c24 14 0 0.448514f
c25 11 0 0.03192f
c26 10 0 0.071364f
c27 9 0 0.03192f
c28 8 0 0.103284f
c29 7 0 0.350664f
r30 104 109 0.68
r31 99 104 0.68
r32 89 92 0.0595578
r33 70 109 0.189414
r34 69 70 0.189414
r35 64 69 0.0366371
r36 64 66 2.908
r37 61 74 0.0904459
r38 57 58 2.99
r39 49 51 0.0223492
r40 48 54 0.0451795
r41 48 49 0.76
r42 47 51 0.0223492
r43 47 92 0.146667
r44 45 99 0.68
r45 45 58 0.0477743
r46 45 89 0.68
r47 45 85 8.71929
r48 45 83 8.71929
r49 45 81 8.71929
r50 45 79 8.71929
r51 45 54 11.07
r52 45 51 5.535
r53 44 77 8.71929
r54 44 75 8.71929
r55 44 74 11.07
r56 44 57 0.0477743
r57 44 61 0.68
r58 40 42 7.5
r59 39 79 25
r60 38 39 10
r61 36 85 137.5
r62 32 42 0.587288
r63 32 83 90
r64 29 40 0.587288
r65 29 31 40
r66 26 28 35
r67 24 81 175
r68 18 38 90
r69 12 14 77.5
r70 10 12 5.58729
r71 10 11 12.5
r72 8 26 5.58729
r73 8 9 22.5
r74 7 11 5.58729
r75 7 77 110
r76 4 9 5.58729
r77 4 75 92.5
.ends

.subckt PM_MINIALU_24 1 3 55 59 63 69 72 77
c0 159 0 0.0899276f
c1 155 0 0.127224f
c2 146 0 0.20832f
c3 142 0 0.061962f
c4 141 0 0.0576f
c5 138 0 0.0525237f
c6 134 0 0.065373f
c7 133 0 0.0576f
c8 127 0 0.0576f
c9 126 0 1.98177f
c10 125 0 0.0576f
c11 124 0 0.0525505f
c12 121 0 0.121642f
c13 116 0 0.0952f
c14 113 0 0.050944f
c15 111 0 0.139342f
c16 109 0 0.685263f
c17 99 0 0.0992f
c18 96 0 0.0728f
c19 95 0 0.151846f
c20 93 0 0.07098f
c21 92 0 0.100649f
c22 91 0 0.0791045f
c23 90 0 0.213195f
c24 88 0 0.33444f
c25 87 0 0.07424f
c26 86 0 0.0399f
c27 85 0 0.277749f
c28 84 0 0.412772f
c29 83 0 0.517908f
c30 81 0 0.08778f
c31 77 0 0.923156f
c32 63 0 0.528314f
c33 59 0 0.340952f
c34 55 0 0.436712f
c35 52 0 0.502284f
c36 31 0 0.09065f
c37 30 0 0.126338f
c38 29 0 0.050318f
c39 27 0 0.127492f
c40 22 0 0.03801f
c41 16 0 0.364372f
c42 14 0 0.03192f
c43 10 0 0.06144f
r44 141 142 0.68
r45 137 138 0.68
r46 133 134 0.68
r47 127 137 0.0477743
r48 126 141 0.0477743
r49 126 127 6.214
r50 125 129 0.0477743
r51 124 133 0.0477743
r52 124 125 0.166
r53 121 166 0.0609665
r54 112 142 0.0477743
r55 112 113 0.16
r56 110 138 0.0477743
r57 110 111 0.412
r58 109 138 0.0477743
r59 108 134 0.0477743
r60 108 109 1.958
r61 99 102 0.0217143
r62 97 166 0.0143593
r63 96 105 0.0451795
r64 95 116 0.0458436
r65 95 96 0.32
r66 94 102 0.0349998
r67 93 159 0.0559551
r68 93 94 0.2075
r69 91 92 0.0446983
r70 90 97 0.367619
r71 88 157 8.71929
r72 88 155 8.71929
r73 88 116 11.07
r74 88 151 8.71929
r75 88 149 8.71929
r76 88 111 0.0477743
r77 88 116 0.68
r78 88 105 11.07
r79 87 159 0.68
r80 87 146 3.75
r81 87 129 0.68
r82 87 99 11.07
r83 86 155 40
r84 85 86 8
r85 83 84 8
r86 83 151 160
r87 79 81 17.5
r88 77 157 187.5
r89 72 85 40
r90 69 84 55
r91 61 146 8.75
r92 61 63 102.5
r93 57 81 0.587288
r94 57 59 60
r95 55 149 90
r96 52 146 3.93537
r97 51 79 0.587288
r98 51 52 157.5
r99 31 91 0.106667
r100 30 31 0.08
r101 27 121 0.0847584
r102 23 90 0.0446983
r103 23 30 0.266667
r104 22 92 0.190476
r105 19 22 0.0446983
r106 19 29 0.106667
r107 14 29 0.044532
r108 14 16 0.24
r109 10 113 0.0477743
r110 10 121 0.68
r111 10 27 7.805
r112 10 16 3.106
r113 5 10 0.273495
r114 5 6 4.52979
r115 3 6 0.190085
r116 1 10 1.82727
.ends

.subckt PM_MINIALU_CONTROL[0] 4 8 20 26 51 54 58 64 119
c0 217 0 0.100576f
c1 212 0 0.0971963f
c2 203 0 0.06496f
c3 189 0 0.066486f
c4 184 0 0.0612f
c5 165 0 0.089628f
c6 154 0 0.150747f
c7 148 0 0.139927f
c8 144 0 0.05376f
c9 141 0 0.0696f
c10 140 0 0.05376f
c11 138 0 0.048144f
c12 136 0 0.024049f
c13 133 0 0.0556798f
c14 132 0 0.04992f
c15 129 0 0.0582936f
c16 126 0 0.04992f
c17 125 0 1.01253f
c18 123 0 0.0864f
c19 122 0 0.296762f
c20 119 0 2.69808f
c21 115 0 0.053512f
c22 114 0 0.0576f
c23 108 0 0.0576f
c24 107 0 0.132444f
c25 106 0 0.0576f
c26 105 0 0.411596f
c27 102 0 0.11236f
c28 99 0 0.033032f
c29 97 0 0.983202f
c30 95 0 0.0992f
c31 89 0 0.063888f
c32 86 0 0.07424f
c33 85 0 0.21074f
c34 83 0 0.0829759f
c35 75 0 0.0757715f
c36 71 0 0.073731f
c37 68 0 0.505518f
c38 67 0 0.14448f
c39 66 0 0.0886138f
c40 62 0 0.376694f
c41 61 0 0.03192f
c42 60 0 0.071364f
c43 58 0 0.341512f
c44 54 0 0.528314f
c45 49 0 0.277112f
c46 48 0 0.417307f
c47 33 0 0.112f
c48 32 0 0.21074f
c49 30 0 0.05586f
c50 26 0 0.544274f
c51 23 0 0.111264f