* File: miniALU4.pex.netlist.pex
* Created: Thu Nov 14 21:15:02 2019
* Program "Calibre xRC"
* Version "v2013.4_26.18"
* Nominal Temperature: 27C
* Circuit Temperature: 27C
* 
.subckt PM_MINIALU4_X37.13 4 5 6
c0 30 0 0.309852f
c1 27 0 0.04368f
c2 26 0 0.203457f
c3 25 0 0.039458f
c4 22 0 0.260944f
c5 19 0 0.03192f
c6 18 0 0.0388878f
c7 17 0 0.190909f
c8 16 0 0.0772888f
c9 12 0 0.285412f
r10 28 30 0.157143
r11 26 28 0.0803164
r12 26 27 0.333333
r13 24 25 0.0838095
r14 20 27 0.0803164
r15 20 22 0.157143
r16 19 25 0.0425897
r17 19 22 0.24
r18 17 24 0.0446983
r19 17 18 0.32
r20 15 18 0.0446983
r21 15 16 0.0438095
r22 10 16 0.0784
r23 10 12 0.24
r24 9 30 3.8825
r25 9 22 3.8825
r26 9 12 3.8825
r27 6 9 0.872944
r28 5 9 1.38877
r29 4 9 0.844615
.ends

.subckt PM_MINIALU4_X37.14 4 5 6
c0 32 0 0.0397037f
c1 31 0 0.039458f
c2 28 0 0.309852f
c3 25 0 0.043848f
c4 24 0 0.200297f
c5 22 0 0.262054f
c6 19 0 0.032032f
c7 16 0 0.03801f
c8 15 0 0.192702f
c9 10 0 0.217732f
c10 8 0 0.03192f
r11 26 28 0.157143
r12 24 26 0.0803164
r13 24 25 0.32
r14 20 25 0.0803164
r15 20 22 0.157143
r16 19 32 0.0451795
r17 19 22 0.24
r18 17 32 0.0838095
r19 15 17 0.0446983
r20 15 16 0.32
r21 13 16 0.0446983
r22 13 31 0.0838095
r23 8 31 0.0451795
r24 8 10 0.12
r25 7 34 0.0772919
r26 7 28 3.8825
r27 7 22 3.8825
r28 7 10 5.17667
r29 6 7 0.872944
r30 5 34 0.877491
r31 4 7 0.954783
.ends

.subckt PM_MINIALU4_X38.13 4 5 6
c0 30 0 0.325142f
c1 27 0 0.04368f
c2 26 0 0.204437f
c3 25 0 0.039458f
c4 22 0 0.260944f
c5 19 0 0.03192f
c6 18 0 0.0388878f
c7 17 0 0.190909f
c8 16 0 0.0772888f
c9 12 0 0.285412f
r10 28 30 0.157143
r11 26 28 0.0803164
r12 26 27 0.333333
r13 24 25 0.0838095
r14 20 27 0.0803164
r15 20 22 0.157143
r16 19 25 0.0425897
r17 19 22 0.24
r18 17 24 0.0446983
r19 17 18 0.32
r20 15 18 0.0446983
r21 15 16 0.0438095
r22 10 16 0.0784
r23 10 12 0.24
r24 9 30 3.8825
r25 9 22 3.8825
r26 9 12 3.8825
r27 6 9 0.872944
r28 5 9 1.38877
r29 4 9 0.844615
.ends

.subckt PM_MINIALU4_X38.14 4 5 6
c0 32 0 0.0397037f
c1 31 0 0.039458f
c2 28 0 0.309852f
c3 25 0 0.04368f
c4 24 0 0.197122f
c5 22 0 0.260944f
c6 19 0 0.03192f
c7 16 0 0.03801f
c8 15 0 0.196062f
c9 10 0 0.217732f
c10 8 0 0.03192f
r11 26 28 0.157143
r12 24 26 0.0803164
r13 24 25 0.32
r14 20 25 0.0803164
r15 20 22 0.157143
r16 19 32 0.0451795
r17 19 22 0.24
r18 17 32 0.0838095
r19 15 17 0.0446983
r20 15 16 0.32
r21 13 16 0.0446983
r22 13 31 0.0838095
r23 8 31 0.0451795
r24 8 10 0.12
r25 7 34 0.0772919
r26 7 28 3.8825
r27 7 22 3.8825
r28 7 10 5.17667
r29 6 7 0.872944
r30 5 34 0.877491
r31 4 7 0.954783
.ends

.subckt PM_MINIALU4_X39.13 4 5 6
c0 30 0 0.309852f
c1 27 0 0.04368f
c2 26 0 0.206817f
c3 25 0 0.039458f
c4 22 0 0.260944f
c5 19 0 0.03192f
c6 18 0 0.0388878f
c7 17 0 0.190909f
c8 16 0 0.0772888f
c9 12 0 0.285412f
r10 28 30 0.157143
r11 26 28 0.0803164
r12 26 27 0.333333
r13 24 25 0.0838095
r14 20 27 0.0803164
r15 20 22 0.157143
r16 19 25 0.0425897
r17 19 22 0.24
r18 17 24 0.0446983
r19 17 18 0.32
r20 15 18 0.0446983
r21 15 16 0.0438095
r22 10 16 0.0784
r23 10 12 0.24
r24 9 30 3.8825
r25 9 22 3.8825
r26 9 12 3.8825
r27 6 9 0.872944
r28 5 9 1.38877
r29 4 9 0.844615
.ends

.subckt PM_MINIALU4_X39.14 4 5 6
c0 32 0 0.0397037f
c1 31 0 0.039458f
c2 28 0 0.309852f
c3 25 0 0.04368f
c4 24 0 0.197122f
c5 22 0 0.260944f
c6 19 0 0.03192f
c7 16 0 0.03801f
c8 15 0 0.196062f
c9 10 0 0.217732f
c10 8 0 0.03192f
r11 26 28 0.157143
r12 24 26 0.0803164
r13 24 25 0.32
r14 20 25 0.0803164
r15 20 22 0.157143
r16 19 32 0.0451795
r17 19 22 0.24
r18 17 32 0.0838095
r19 15 17 0.0446983
r20 15 16 0.32
r21 13 16 0.0446983
r22 13 31 0.0838095
r23 8 31 0.0451795
r24 8 10 0.12
r25 7 34 0.0772919
r26 7 28 3.8825
r27 7 22 3.8825
r28 7 10 5.17667
r29 6 7 0.872944
r30 5 34 0.877491
r31 4 7 0.954783
.ends

.subckt PM_MINIALU4_X40.13 4 5 6
c0 30 0 0.309852f
c1 27 0 0.04368f
c2 26 0 0.203457f
c3 25 0 0.039458f
c4 22 0 0.260944f
c5 19 0 0.03192f
c6 18 0 0.0395808f
c7 17 0 0.194368f
c8 16 0 0.0772888f
c9 12 0 0.285412f
r10 28 30 0.157143
r11 26 28 0.0803164
r12 26 27 0.333333
r13 24 25 0.0838095
r14 20 27 0.0803164
r15 20 22 0.157143
r16 19 25 0.0425897
r17 19 22 0.24
r18 17 24 0.0446983
r19 17 18 0.32
r20 15 18 0.0446983
r21 15 16 0.0438095
r22 10 16 0.0784
r23 10 12 0.24
r24 9 30 3.8825
r25 9 22 3.8825
r26 9 12 3.8825
r27 6 9 0.872944
r28 5 9 1.38877
r29 4 9 0.844615
.ends

.subckt PM_MINIALU4_X40.14 4 5 6
c0 32 0 0.0397037f
c1 31 0 0.039458f
c2 28 0 0.309852f
c3 25 0 0.04368f
c4 24 0 0.200482f
c5 22 0 0.260944f
c6 19 0 0.03192f
c7 16 0 0.038703f
c8 15 0 0.198071f
c9 10 0 0.217732f
c10 8 0 0.03192f
r11 26 28 0.157143
r12 24 26 0.0803164
r13 24 25 0.32
r14 20 25 0.0803164
r15 20 22 0.157143
r16 19 32 0.0451795
r17 19 22 0.24
r18 17 32 0.0838095
r19 15 17 0.0446983
r20 15 16 0.32
r21 13 16 0.0446983
r22 13 31 0.0838095
r23 8 31 0.0451795
r24 8 10 0.12
r25 7 34 0.0772919
r26 7 28 3.8825
r27 7 22 3.8825
r28 7 10 5.17667
r29 6 7 0.872944
r30 5 34 0.877491
r31 4 7 0.954783
.ends

.subckt PM_MINIALU4_X43.8 3 4
c0 23 0 0.056653f
c1 22 0 0.056653f
c2 19 0 0.206452f
c3 17 0 0.03192f
c4 14 0 0.03801f
c5 13 0 0.194812f
c6 8 0 0.206452f
c7 6 0 0.03192f
r8 17 23 0.0451795
r9 17 19 0.12
r10 15 23 0.12
r11 13 15 0.0446983
r12 13 14 0.32
r13 11 14 0.0446983
r14 11 22 0.12
r15 6 22 0.0451795
r16 6 8 0.12
r17 5 19 5.17667
r18 5 8 5.17667
r19 4 5 1.29176
r20 3 5 1.29176
.ends

.subckt PM_MINIALU4_X44.8 3 4
c0 23 0 0.056653f
c1 22 0 0.056653f
c2 19 0 0.206452f
c3 17 0 0.03192f
c4 14 0 0.03801f
c5 13 0 0.191452f
c6 8 0 0.206452f
c7 6 0 0.03192f
r8 17 23 0.0451795
r9 17 19 0.12
r10 15 23 0.12
r11 13 15 0.0446983
r12 13 14 0.32
r13 11 14 0.0446983
r14 11 22 0.12
r15 6 22 0.0451795
r16 6 8 0.12
r17 5 19 5.17667
r18 5 8 5.17667
r19 4 5 1.29176
r20 3 5 1.29176
.ends

.subckt PM_MINIALU4_X45.8 3 4
c0 23 0 0.056653f
c1 22 0 0.056653f
c2 19 0 0.206452f
c3 17 0 0.03192f
c4 14 0 0.03801f
c5 13 0 0.191452f
c6 8 0 0.208802f
c7 6 0 0.032256f
r8 17 23 0.0451795
r9 17 19 0.12
r10 15 23 0.12
r11 13 15 0.0446983
r12 13 14 0.32
r13 11 14 0.0446983
r14 11 22 0.12
r15 6 22 0.0451795
r16 6 8 0.12
r17 5 19 5.17667
r18 5 8 5.17667
r19 4 5 1.29176
r20 3 5 1.29176
.ends

.subckt PM_MINIALU4_X46.8 3 4
c0 23 0 0.056653f
c1 22 0 0.056653f
c2 19 0 0.209585f
c3 17 0 0.032368f
c4 14 0 0.03801f
c5 13 0 0.191452f
c6 8 0 0.206452f
c7 6 0 0.03192f
r8 17 23 0.0451795
r9 17 19 0.12
r10 15 23 0.12
r11 13 15 0.0446983
r12 13 14 0.32
r13 11 14 0.0446983
r14 11 22 0.12
r15 6 22 0.0451795
r16 6 8 0.12
r17 5 19 5.17667
r18 5 8 5.17667
r19 4 5 1.29176
r20 3 5 1.29176
.ends

.subckt PM_MINIALU4_X47.6 4 8 14 16
c0 41 0 0.297202f
c1 39 0 0.07406f
c2 37 0 0.022155f
c3 36 0 0.25644f
c4 34 0 0.128374f
c5 26 0 0.207116f
c6 24 0 0.032928f
c7 23 0 0.038955f
c8 22 0 0.140563f
c9 21 0 0.120312f
c10 20 0 0.03192f
c11 17 0 0.146433f
c12 13 0 0.0455407f
c13 12 0 0.209477f
c14 8 0 0.377293f
c15 4 0 0.381412f
r16 39 41 0.0451795
r17 32 37 0.0338756
r18 32 41 0.605714
r19 29 37 0.00880368
r20 29 36 0.533333
r21 24 36 0.0451795
r22 24 26 0.12
r23 22 37 0.0338756
r24 22 23 0.287619
r25 21 23 0.0446983
r26 20 34 0.0451795
r27 20 21 0.253333
r28 17 43 0.147922
r29 17 48 8.81074
r30 17 46 8.81074
r31 17 39 11.07
r32 17 34 7.805
r33 17 26 5.17667
r34 16 17 1.29176
r35 14 43 1.67935
r36 12 13 11.2903
r37 12 48 65
r38 8 46 70
r39 4 13 57.5
.ends

.subckt PM_MINIALU4_X47.8 1 2
c0 19 0 0.0572452f
c1 15 0 0.127492f
c2 13 0 0.032802f
c3 12 0 0.038514f
c4 11 0 0.20324f
c5 10 0 0.0579118f
c6 6 0 0.130399f
c7 4 0 0.0333253f
r8 18 19 0.12
r9 13 19 0.0425897
r10 13 15 0.12
r11 11 18 0.0446983
r12 11 12 0.346667
r13 9 12 0.0446983
r14 9 10 0.12
r15 4 10 0.0425897
r16 4 6 0.12
r17 3 20 0.147922
r18 3 15 7.805
r19 3 6 7.805
r20 2 3 1.82727
r21 1 20 1.67935
.ends

.subckt PM_MINIALU4_X48.6 4 8 14 16
c0 41 0 0.29512f
c1 39 0 0.074228f
c2 37 0 0.02184f
c3 36 0 0.257064f
c4 34 0 0.127492f
c5 26 0 0.206452f
c6 24 0 0.03192f
c7 23 0 0.03864f
c8 22 0 0.139434f
c9 21 0 0.121263f
c10 20 0 0.03192f
c11 17 0 0.14647f
c12 13 0 0.0455407f
c13 12 0 0.208987f
c14 8 0 0.376778f
c15 4 0 0.380852f
r16 39 41 0.0451795
r17 32 37 0.0338756
r18 32 41 0.605714
r19 29 37 0.00880368
r20 29 36 0.533333
r21 24 36 0.0451795
r22 24 26 0.12
r23 22 37 0.0338756
r24 22 23 0.287619
r25 21 23 0.0446983
r26 20 34 0.0451795
r27 20 21 0.253333
r28 17 43 0.147922
r29 17 48 8.81074
r30 17 46 8.81074
r31 17 39 11.07
r32 17 34 7.805
r33 17 26 5.17667
r34 16 17 1.29176
r35 14 43 1.67935
r36 12 13 11.2903
r37 12 48 65
r38 8 46 70
r39 4 13 57.5
.ends

.subckt PM_MINIALU4_X48.8 1 2
c0 19 0 0.056653f
c1 15 0 0.127492f
c2 13 0 0.03192f
c3 12 0 0.03801f
c4 11 0 0.2066f
c5 10 0 0.056653f
c6 6 0 0.127492f
c7 4 0 0.03192f
r8 18 19 0.12
r9 13 19 0.0425897
r10 13 15 0.12
r11 11 18 0.0446983
r12 11 12 0.346667
r13 9 12 0.0446983
r14 9 10 0.12
r15 4 10 0.0425897
r16 4 6 0.12
r17 3 20 0.147922
r18 3 15 7.805
r19 3 6 7.805
r20 2 3 1.82727
r21 1 20 1.67935
.ends

.subckt PM_MINIALU4_X49.6 4 8 14 16
c0 41 0 0.294504f
c1 39 0 0.07448f
c2 37 0 0.0221235f
c3 36 0 0.25552f
c4 34 0 0.127492f
c5 26 0 0.207242f
c6 24 0 0.032802f
c7 23 0 0.0389235f
c8 22 0 0.142941f
c9 21 0 0.121263f
c10 20 0 0.03192f
c11 17 0 0.146271f
c12 13 0 0.0455407f
c13 12 0 0.208917f
c14 8 0 0.37682f
c15 4 0 0.381412f
r16 39 41 0.0451795
r17 32 37 0.0338756
r18 32 41 0.605714
r19 29 37 0.00880368
r20 29 36 0.533333
r21 24 36 0.0451795
r22 24 26 0.12
r23 22 37 0.0338756
r24 22 23 0.287619
r25 21 23 0.0446983
r26 20 34 0.0451795
r27 20 21 0.253333
r28 17 43 0.147922
r29 17 48 8.81074
r30 17 46 8.81074
r31 17 39 11.07
r32 17 34 7.805
r33 17 26 5.17667
r34 16 17 1.29176
r35 14 43 1.67935
r36 12 13 11.2903
r37 12 48 65
r38 8 46 70
r39 4 13 57.5
.ends

.subckt PM_MINIALU4_X49.8 1 2
c0 19 0 0.056653f
c1 15 0 0.127492f
c2 13 0 0.03192f
c3 12 0 0.03801f
c4 11 0 0.20324f
c5 10 0 0.056653f
c6 6 0 0.127492f
c7 4 0 0.03192f
r8 18 19 0.12
r9 13 19 0.0425897
r10 13 15 0.12
r11 11 18 0.0446983
r12 11 12 0.346667
r13 9 12 0.0446983
r14 9 10 0.12
r15 4 10 0.0425897
r16 4 6 0.12
r17 3 20 0.147922
r18 3 15 7.805
r19 3 6 7.805
r20 2 3 1.82727
r21 1 20 1.67935
.ends

.subckt PM_MINIALU4_X50.6 4 8 14 16
c0 41 0 0.29236f
c1 39 0 0.074228f
c2 37 0 0.022026f
c3 36 0 0.258688f
c4 34 0 0.128374f
c5 26 0 0.207233f
c6 24 0 0.032802f
c7 23 0 0.038955f
c8 22 0 0.143035f
c9 21 0 0.120312f
c10 20 0 0.03192f
c11 17 0 0.14647f
c12 13 0 0.0455407f
c13 12 0 0.209211f
c14 8 0 0.377254f
c15 4 0 0.380852f
r16 39 41 0.0451795
r17 32 37 0.0338756
r18 32 41 0.605714
r19 29 37 0.00880368
r20 29 36 0.533333
r21 24 36 0.0451795
r22 24 26 0.12
r23 22 37 0.0338756
r24 22 23 0.287619
r25 21 23 0.0446983
r26 20 34 0.0451795
r27 20 21 0.253333
r28 17 43 0.147922
r29 17 48 8.81074
r30 17 46 8.81074
r31 17 39 11.07
r32 17 34 7.805
r33 17 26 5.17667
r34 16 17 1.29176
r35 14 43 1.67935
r36 12 13 11.2903
r37 12 48 65
r38 8 46 70
r39 4 13 57.5
.ends

.subckt PM_MINIALU4_X50.8 1 2
c0 19 0 0.0572452f
c1 15 0 0.127492f
c2 13 0 0.032802f
c3 12 0 0.03801f
c4 11 0 0.20324f
c5 10 0 0.0572452f
c6 6 0 0.127492f
c7 4 0 0.032802f
r8 18 19 0.12
r9 13 19 0.0425897
r10 13 15 0.12
r11 11 18 0.0446983
r12 11 12 0.346667
r13 9 12 0.0446983
r14 9 10 0.12
r15 4 10 0.0425897
r16 4 6 0.12
r17 3 20 0.147922
r18 3 15 7.805
r19 3 6 7.805
r20 2 3 1.82727
r21 1 20 1.67935
.ends

.subckt PM_MINIALU4_X51.6 4 8 14 16
c0 41 0 0.29236f
c1 39 0 0.074228f
c2 37 0 0.02184f
c3 36 0 0.255804f
c4 34 0 0.127492f
c5 26 0 0.206452f
c6 24 0 0.03192f
c7 23 0 0.03864f
c8 22 0 0.139434f
c9 21 0 0.121263f
c10 20 0 0.03192f
c11 17 0 0.14647f
c12 13 0 0.0455407f
c13 12 0 0.209071f
c14 8 0 0.376778f
c15 4 0 0.380852f
r16 39 41 0.0451795
r17 32 37 0.0338756
r18 32 41 0.605714
r19 29 37 0.00880368
r20 29 36 0.533333
r21 24 36 0.0451795
r22 24 26 0.12
r23 22 37 0.0338756
r24 22 23 0.287619
r25 21 23 0.0446983
r26 20 34 0.0451795
r27 20 21 0.253333
r28 17 43 0.147922
r29 17 48 8.81074
r30 17 46 8.81074
r31 17 39 11.07
r32 17 34 7.805
r33 17 26 5.17667
r34 16 17 1.29176
r35 14 43 1.67935
r36 12 13 11.2903
r37 12 48 65
r38 8 46 70
r39 4 13 57.5
.ends

.subckt PM_MINIALU4_X51.8 1 2
c0 19 0 0.056653f
c1 15 0 0.127492f
c2 13 0 0.03192f
c3 12 0 0.03801f
c4 11 0 0.20324f
c5 10 0 0.056653f
c6 6 0 0.127492f
c7 4 0 0.03192f
r8 18 19 0.12
r9 13 19 0.0425897
r10 13 15 0.12
r11 11 18 0.0446983
r12 11 12 0.346667
r13 9 12 0.0446983
r14 9 10 0.12
r15 4 10 0.0425897
r16 4 6 0.12
r17 3 20 0.147922
r18 3 15 7.805
r19 3 6 7.805
r20 2 3 1.82727
r21 1 20 1.67935
.ends

.subckt PM_MINIALU4_X52.6 4 8 14 16
c0 41 0 0.287596f
c1 39 0 0.0728f
c2 37 0 0.02121f
c3 36 0 0.25518f
c4 34 0 0.127492f
c5 26 0 0.207242f
c6 24 0 0.032802f
c7 23 0 0.0389235f
c8 22 0 0.142031f
c9 21 0 0.121263f
c10 20 0 0.03192f
c11 17 0 0.14595f
c12 13 0 0.0455407f
c13 12 0 0.209477f
c14 8 0 0.37682f
c15 4 0 0.381412f
r16 39 41 0.0451795
r17 32 37 0.0338756
r18 32 41 0.605714
r19 29 37 0.00880368
r20 29 36 0.533333
r21 24 36 0.0451795
r22 24 26 0.12
r23 22 37 0.0338756
r24 22 23 0.287619
r25 21 23 0.0446983
r26 20 34 0.0451795
r27 20 21 0.253333
r28 17 43 0.147922
r29 17 48 8.81074
r30 17 46 8.81074
r31 17 39 11.07
r32 17 34 7.805
r33 17 26 5.17667
r34 16 17 1.29176
r35 14 43 1.67935
r36 12 13 11.2903
r37 12 48 65
r38 8 46 70
r39 4 13 57.5
.ends

.subckt PM_MINIALU4_X52.8 1 2
c0 19 0 0.056653f
c1 15 0 0.127492f
c2 13 0 0.03192f
c3 12 0 0.03801f
c4 11 0 0.20324f
c5 10 0 0.056653f
c6 6 0 0.127492f
c7 4 0 0.03192f
r8 18 19 0.12
r9 13 19 0.0425897
r10 13 15 0.12
r11 11 18 0.0446983
r12 11 12 0.346667
r13 9 12 0.0446983
r14 9 10 0.12
r15 4 10 0.0425897
r16 4 6 0.12
r17 3 20 0.147922
r18 3 15 7.805
r19 3 6 7.805
r20 2 3 1.82727
r21 1 20 1.67935
.ends

.subckt PM_MINIALU4_X53.6 4 8 14 16
c0 41 0 0.287596f
c1 39 0 0.0728f
c2 37 0 0.02121f
c3 36 0 0.256679f
c4 34 0 0.136688f
c5 26 0 0.206452f
c6 24 0 0.03192f
c7 23 0 0.041286f
c8 22 0 0.137175f
c9 21 0 0.130346f
c10 20 0 0.03416f
c11 17 0 0.14595f
c12 13 0 0.0455407f
c13 12 0 0.209491f
c14 8 0 0.377254f
c15 4 0 0.380852f
r16 39 41 0.0451795
r17 32 37 0.0338756
r18 32 41 0.605714
r19 29 37 0.00880368
r20 29 36 0.533333
r21 24 36 0.0451795
r22 24 26 0.12
r23 22 37 0.0338756
r24 22 23 0.287619
r25 21 23 0.0446983
r26 20 34 0.0451795
r27 20 21 0.253333
r28 17 43 0.147922
r29 17 48 8.81074
r30 17 46 8.81074
r31 17 39 11.07
r32 17 34 7.805
r33 17 26 5.17667
r34 16 17 1.29176
r35 14 43 1.67935
r36 12 13 11.2903
r37 12 48 65
r38 8 46 70
r39 4 13 57.5
.ends

.subckt PM_MINIALU4_X53.8 1 2
c0 19 0 0.0572452f
c1 15 0 0.127492f
c2 13 0 0.032802f
c3 12 0 0.03801f
c4 11 0 0.20324f
c5 10 0 0.0572452f
c6 6 0 0.127492f
c7 4 0 0.032802f
r8 18 19 0.12
r9 13 19 0.0425897
r10 13 15 0.12
r11 11 18 0.0446983
r12 11 12 0.346667
r13 9 12 0.0446983
r14 9 10 0.12
r15 4 10 0.0425897
r16 4 6 0.12
r17 3 20 0.147922
r18 3 15 7.805
r19 3 6 7.805
r20 2 3 1.82727
r21 1 20 1.67935
.ends

.subckt PM_MINIALU4_X54.6 4 8 14 16
c0 41 0 0.290956f
c1 39 0 0.0728f
c2 37 0 0.02121f
c3 36 0 0.25644f
c4 34 0 0.127492f
c5 26 0 0.206452f
c6 24 0 0.03192f
c7 23 0 0.03801f
c8 22 0 0.137175f
c9 21 0 0.121263f
c10 20 0 0.03192f
c11 17 0 0.14595f
c12 13 0 0.0455407f
c13 12 0 0.209631f
c14 8 0 0.376778f
c15 4 0 0.380852f
r16 39 41 0.0451795
r17 32 37 0.0338756
r18 32 41 0.605714
r19 29 37 0.00880368
r20 29 36 0.533333
r21 24 36 0.0451795
r22 24 26 0.12
r23 22 37 0.0338756
r24 22 23 0.287619
r25 21 23 0.0446983
r26 20 34 0.0451795
r27 20 21 0.253333
r28 17 43 0.147922
r29 17 48 8.81074
r30 17 46 8.81074
r31 17 39 11.07
r32 17 34 7.805
r33 17 26 5.17667
r34 16 17 1.29176
r35 14 43 1.67935
r36 12 13 11.2903
r37 12 48 65
r38 8 46 70
r39 4 13 57.5
.ends

.subckt PM_MINIALU4_X54.8 1 2
c0 19 0 0.056653f
c1 15 0 0.128163f
c2 13 0 0.032088f
c3 12 0 0.03801f
c4 11 0 0.2066f
c5 10 0 0.056653f
c6 6 0 0.127492f
c7 4 0 0.03192f
r8 18 19 0.12
r9 13 19 0.0425897
r10 13 15 0.12
r11 11 18 0.0446983
r12 11 12 0.346667
r13 9 12 0.0446983
r14 9 10 0.12
r15 4 10 0.0425897
r16 4 6 0.12
r17 3 20 0.147922
r18 3 15 7.805
r19 3 6 7.805
r20 2 3 1.82727
r21 1 20 1.67935
.ends

.subckt PM_MINIALU4_X55.6 4 8 14 16
c0 41 0 0.290956f
c1 39 0 0.0728f
c2 37 0 0.02121f
c3 36 0 0.25644f
c4 34 0 0.127492f
c5 26 0 0.206452f
c6 24 0 0.03192f
c7 23 0 0.03801f
c8 22 0 0.137175f
c9 21 0 0.121263f
c10 20 0 0.03192f
c11 17 0 0.14595f
c12 13 0 0.0455407f
c13 12 0 0.208917f
c14 8 0 0.376694f
c15 4 0 0.380852f
r16 39 41 0.0451795
r17 32 37 0.0338756
r18 32 41 0.605714
r19 29 37 0.00880368
r20 29 36 0.533333
r21 24 36 0.0451795
r22 24 26 0.12
r23 22 37 0.0338756
r24 22 23 0.287619
r25 21 23 0.0446983
r26 20 34 0.0451795
r27 20 21 0.253333
r28 17 43 0.147922
r29 17 48 8.81074
r30 17 46 8.81074
r31 17 39 11.07
r32 17 34 7.805
r33 17 26 5.17667
r34 16 17 1.29176
r35 14 43 1.67935
r36 12 13 11.2903
r37 12 48 65
r38 8 46 70
r39 4 13 57.5
.ends

.subckt PM_MINIALU4_X55.8 1 2
c0 19 0 0.056653f
c1 15 0 0.127492f
c2 13 0 0.03192f
c3 12 0 0.03801f
c4 11 0 0.20324f
c5 10 0 0.056653f
c6 6 0 0.127492f
c7 4 0 0.03192f
r8 18 19 0.12
r9 13 19 0.0425897
r10 13 15 0.12
r11 11 18 0.0446983
r12 11 12 0.346667
r13 9 12 0.0446983
r14 9 10 0.12
r15 4 10 0.0425897
r16 4 6 0.12
r17 3 20 0.147922
r18 3 15 7.805
r19 3 6 7.805
r20 2 3 1.82727
r21 1 20 1.67935
.ends

.subckt PM_MINIALU4_X56.6 4 8 14 16
c0 41 0 0.296886f
c1 39 0 0.07448f
c2 37 0 0.0224385f
c3 36 0 0.254449f
c4 34 0 0.128374f
c5 26 0 0.208132f
c6 24 0 0.03192f
c7 23 0 0.0392385f
c8 22 0 0.14158f
c9 21 0 0.121263f
c10 20 0 0.03192f
c11 17 0 0.146237f
c12 13 0 0.0455407f
c13 12 0 0.209239f
c14 8 0 0.377436f
c15 4 0 0.381412f
r16 39 41 0.0451795
r17 32 37 0.0338756
r18 32 41 0.605714
r19 29 37 0.00880368
r20 29 36 0.533333
r21 24 36 0.0451795
r22 24 26 0.12
r23 22 37 0.0338756
r24 22 23 0.287619
r25 21 23 0.0446983
r26 20 34 0.0451795
r27 20 21 0.253333
r28 17 43 0.147922
r29 17 48 8.81074
r30 17 46 8.81074
r31 17 39 11.07
r32 17 34 7.805
r33 17 26 5.17667
r34 16 17 1.29176
r35 14 43 1.67935
r36 12 13 11.2903
r37 12 48 65
r38 8 46 70
r39 4 13 57.5
.ends

.subckt PM_MINIALU4_X56.8 1 2
c0 19 0 0.0572452f
c1 15 0 0.127492f
c2 13 0 0.032802f
c3 12 0 0.03801f
c4 11 0 0.20324f
c5 10 0 0.0572452f
c6 6 0 0.127492f
c7 4 0 0.032802f
r8 18 19 0.12
r9 13 19 0.0425897
r10 13 15 0.12
r11 11 18 0.0446983
r12 11 12 0.346667
r13 9 12 0.0446983
r14 9 10 0.12
r15 4 10 0.0425897
r16 4 6 0.12
r17 3 20 0.147922
r18 3 15 7.805
r19 3 6 7.805
r20 2 3 1.82727
r21 1 20 1.67935
.ends

.subckt PM_MINIALU4_X57.6 4 8 14 16
c0 41 0 0.292955f
c1 39 0 0.074592f
c2 37 0 0.02121f
c3 36 0 0.25518f
c4 34 0 0.127492f
c5 26 0 0.208132f
c6 24 0 0.03192f
c7 23 0 0.03801f
c8 22 0 0.137175f
c9 21 0 0.120003f
c10 20 0 0.03192f
c11 17 0 0.146325f
c12 13 0 0.0455407f
c13 12 0 0.208917f
c14 8 0 0.376694f
c15 4 0 0.380852f
r16 39 41 0.0451795
r17 32 37 0.0338756
r18 32 41 0.605714
r19 29 37 0.00880368
r20 29 36 0.533333
r21 24 36 0.0451795
r22 24 26 0.12
r23 22 37 0.0338756
r24 22 23 0.287619
r25 21 23 0.0446983
r26 20 34 0.0451795
r27 20 21 0.253333
r28 17 43 0.147922
r29 17 48 8.81074
r30 17 46 8.81074
r31 17 39 11.07
r32 17 34 7.805
r33 17 26 5.17667
r34 16 17 1.29176
r35 14 43 1.67935
r36 12 13 11.2903
r37 12 48 65
r38 8 46 70
r39 4 13 57.5
.ends

.subckt PM_MINIALU4_X57.8 1 2
c0 19 0 0.0612854f
c1 15 0 0.136436f
c2 13 0 0.03416f
c3 12 0 0.040026f
c4 11 0 0.206583f
c5 10 0 0.0596578f
c6 6 0 0.134424f
c7 4 0 0.033656f
r8 18 19 0.12
r9 13 19 0.0425897
r10 13 15 0.12
r11 11 18 0.0446983
r12 11 12 0.346667
r13 9 12 0.0446983
r14 9 10 0.12
r15 4 10 0.0425897
r16 4 6 0.12
r17 3 20 0.147922
r18 3 15 7.805
r19 3 6 7.805
r20 2 3 1.82727
r21 1 20 1.67935
.ends

.subckt PM_MINIALU4_X58.6 4 8 14 16
c0 41 0 0.297124f
c1 39 0 0.07448f
c2 37 0 0.02247f
c3 36 0 0.25518f
c4 34 0 0.127492f
c5 26 0 0.206452f
c6 24 0 0.03192f
c7 23 0 0.03801f
c8 22 0 0.143835f
c9 21 0 0.120003f
c10 20 0 0.03192f
c11 17 0 0.14623f
c12 13 0 0.0455407f
c13 12 0 0.209477f
c14 8 0 0.376694f
c15 4 0 0.380852f
r16 39 41 0.0451795
r17 32 37 0.0338756
r18 32 41 0.605714
r19 29 37 0.00880368
r20 29 36 0.533333
r21 24 36 0.0451795
r22 24 26 0.12
r23 22 37 0.0338756
r24 22 23 0.287619
r25 21 23 0.0446983
r26 20 34 0.0451795
r27 20 21 0.253333
r28 17 43 0.147922
r29 17 48 8.81074
r30 17 46 8.81074
r31 17 39 11.07
r32 17 34 7.805
r33 17 26 5.17667
r34 16 17 1.29176
r35 14 43 1.67935
r36 12 13 11.2903
r37 12 48 65
r38 8 46 70
r39 4 13 57.5
.ends

.subckt PM_MINIALU4_X58.8 1 2
c0 19 0 0.056653f
c1 15 0 0.127492f
c2 13 0 0.03192f
c3 12 0 0.03801f
c4 11 0 0.20324f
c5 10 0 0.056653f
c6 6 0 0.127492f
c7 4 0 0.03192f
r8 18 19 0.12
r9 13 19 0.0425897
r10 13 15 0.12
r11 11 18 0.0446983
r12 11 12 0.346667
r13 9 12 0.0446983
r14 9 10 0.12
r15 4 10 0.0425897
r16 4 6 0.12
r17 3 20 0.147922
r18 3 15 7.805
r19 3 6 7.805
r20 2 3 1.82727
r21 1 20 1.67935
.ends

.subckt PM_MINIALU4_X59.6 4 8 14 16
c0 41 0 0.287596f
c1 39 0 0.0728f
c2 37 0 0.02121f
c3 36 0 0.25518f
c4 34 0 0.127492f
c5 26 0 0.206452f
c6 24 0 0.03192f
c7 23 0 0.03801f
c8 22 0 0.137175f
c9 21 0 0.120003f
c10 20 0 0.03192f
c11 17 0 0.14595f
c12 13 0 0.0455407f
c13 12 0 0.208917f
c14 8 0 0.376694f
c15 4 0 0.380852f
r16 39 41 0.0451795
r17 32 37 0.0338756
r18 32 41 0.605714
r19 29 37 0.00880368
r20 29 36 0.533333
r21 24 36 0.0451795
r22 24 26 0.12
r23 22 37 0.0338756
r24 22 23 0.287619
r25 21 23 0.0446983
r26 20 34 0.0451795
r27 20 21 0.253333
r28 17 43 0.147922
r29 17 48 8.81074
r30 17 46 8.81074
r31 17 39 11.07
r32 17 34 7.805
r33 17 26 5.17667
r34 16 17 1.29176
r35 14 43 1.67935
r36 12 13 11.2903
r37 12 48 65
r38 8 46 70
r39 4 13 57.5
.ends

.subckt PM_MINIALU4_X59.8 1 2
c0 19 0 0.056653f
c1 15 0 0.127492f
c2 13 0 0.03192f
c3 12 0 0.03801f
c4 11 0 0.20324f
c5 10 0 0.056653f
c6 6 0 0.127492f
c7 4 0 0.03192f
r8 18 19 0.12
r9 13 19 0.0425897
r10 13 15 0.12
r11 11 18 0.0446983
r12 11 12 0.346667
r13 9 12 0.0446983
r14 9 10 0.12
r15 4 10 0.0425897
r16 4 6 0.12
r17 3 20 0.147922
r18 3 15 7.805
r19 3 6 7.805
r20 2 3 1.82727
r21 1 20 1.67935
.ends

.subckt PM_MINIALU4_X60.7 4 8 10 12
c0 40 0 0.0900675f
c1 35 0 0.0667494f
c2 30 0 0.08144f
c3 28 0 0.336928f
c4 25 0 0.23122f
c5 23 0 0.143709f
c6 22 0 0.036f
c7 21 0 0.339164f
c8 20 0 0.19794f
c9 16 0 0.127492f
c10 14 0 0.08672f
c11 13 0 0.1365f
c12 8 0 0.974124f
c13 4 0 0.450214f
r14 40 42 0.0315152
r15 35 37 0.068
r16 30 33 0.0466492
r17 27 42 0.0240454
r18 27 28 0.804
r19 26 35 0.0046983
r20 25 28 0.0446983
r21 25 26 0.43
r22 24 34 0.00934422
r23 23 37 0.0046983
r24 23 24 0.314
r25 21 40 0.054748
r26 21 22 0.742
r27 20 22 0.0446983
r28 20 33 0.438
r29 14 34 0.100462
r30 14 16 0.12
r31 13 44 0.16161
r32 13 48 8.71929
r33 13 46 8.71929
r34 13 40 11.07
r35 13 30 15.61
r36 13 16 7.765
r37 12 44 1.83475
r38 10 13 4.02
r39 8 48 229.643
r40 4 46 92.8571
.ends

.subckt PM_MINIALU4_X60.9 6 9 15 17
c0 37 0 0.0784f
c1 35 0 0.127492f
c2 33 0 0.529661f
c3 31 0 0.0469805f
c4 30 0 0.203395f
c5 29 0 0.03801f
c6 28 0 0.159517f
c7 27 0 0.041268f
c8 26 0 0.03192f
c9 23 0 0.215014f
c10 13 0 0.06612f
c11 9 0 0.494185f
c12 4 0 0.280532f
c13 3 0 0.609444f
c14 2 0 0.14186f
r15 40 42 0.0527007
r16 37 40 0.0148571
r17 33 42 1.19048
r18 30 33 0.0446983
r19 30 31 0.329524
r20 28 37 0.024431
r21 28 29 0.325714
r22 27 29 0.0446983
r23 26 35 0.0451795
r24 26 27 0.0876191
r25 21 31 0.0676349
r26 21 23 0.122857
r27 18 40 11.07
r28 18 35 7.805
r29 18 23 5.17667
r30 17 18 0.998182
r31 15 18 1.82727
r32 11 13 10.7143
r33 7 13 0.587288
r34 7 9 80.3571
r35 4 18 8.7632
r36 4 6 41.0714
r37 3 11 0.587288
r38 2 18 8.7632
r39 2 3 191.071
.ends

.subckt PM_MINIALU4_X61.7 4 8 10 12
c0 40 0 0.0899275f
c1 35 0 0.0667494f
c2 30 0 0.082322f
c3 28 0 0.333808f
c4 25 0 0.22802f
c5 23 0 0.143709f
c6 22 0 0.036f
c7 21 0 0.33606f
c8 20 0 0.19674f
c9 16 0 0.127492f
c10 14 0 0.08672f
c11 13 0 0.1365f
c12 8 0 0.974054f
c13 4 0 0.450214f
r14 40 42 0.0315152
r15 35 37 0.068
r16 30 33 0.0466492
r17 27 42 0.0240454
r18 27 28 0.804
r19 26 35 0.0046983
r20 25 28 0.0446983
r21 25 26 0.43
r22 24 34 0.00934422
r23 23 37 0.0046983
r24 23 24 0.314
r25 21 40 0.054748
r26 21 22 0.742
r27 20 22 0.0446983
r28 20 33 0.438
r29 14 34 0.100462
r30 14 16 0.12
r31 13 44 0.16161
r32 13 48 8.71929
r33 13 46 8.71929
r34 13 40 11.07
r35 13 30 15.61
r36 13 16 7.765
r37 12 44 1.83475
r38 10 13 4.02
r39 8 48 229.643
r40 4 46 92.8571
.ends

.subckt PM_MINIALU4_X61.9 6 9 15 17
c0 37 0 0.0784f
c1 35 0 0.129172f
c2 33 0 0.525125f
c3 31 0 0.04452f
c4 30 0 0.195452f
c5 29 0 0.03801f
c6 28 0 0.156157f
c7 27 0 0.041268f
c8 26 0 0.03192f
c9 23 0 0.208332f
c10 13 0 0.06612f
c11 9 0 0.493712f
c12 4 0 0.281092f
c13 3 0 0.609444f
c14 2 0 0.14186f
r15 40 42 0.0527007
r16 37 40 0.0148571
r17 33 42 1.19048
r18 30 33 0.0446983
r19 30 31 0.329524
r20 28 37 0.024431
r21 28 29 0.325714
r22 27 29 0.0446983
r23 26 35 0.0451795
r24 26 27 0.0876191
r25 21 31 0.0676349
r26 21 23 0.122857
r27 18 40 11.07
r28 18 35 7.805
r29 18 23 5.17667
r30 17 18 0.998182
r31 15 18 1.82727
r32 11 13 10.7143
r33 7 13 0.587288
r34 7 9 80.3571
r35 4 18 8.7632
r36 4 6 41.0714
r37 3 11 0.587288
r38 2 18 8.7632
r39 2 3 191.071
.ends

.subckt PM_MINIALU4_X62.7 4 8 10 12
c0 40 0 0.0899275f
c1 35 0 0.0667494f
c2 30 0 0.08144f
c3 28 0 0.334528f
c4 25 0 0.22802f
c5 23 0 0.143709f
c6 22 0 0.036f
c7 21 0 0.336524f
c8 20 0 0.19914f
c9 16 0 0.127492f
c10 14 0 0.08672f
c11 13 0 0.1365f
c12 8 0 0.974054f
c13 4 0 0.450214f
r14 40 42 0.0315152
r15 35 37 0.068
r16 30 33 0.0466492
r17 27 42 0.0240454
r18 27 28 0.804
r19 26 35 0.0046983
r20 25 28 0.0446983
r21 25 26 0.43
r22 24 34 0.00934422
r23 23 37 0.0046983
r24 23 24 0.314
r25 21 40 0.054748
r26 21 22 0.742
r27 20 22 0.0446983
r28 20 33 0.438
r29 14 34 0.100462
r30 14 16 0.12
r31 13 44 0.16161
r32 13 48 8.71929
r33 13 46 8.71929
r34 13 40 11.07
r35 13 30 15.61
r36 13 16 7.765
r37 12 44 1.83475
r38 10 13 4.02
r39 8 48 229.643
r40 4 46 92.8571
.ends

.subckt PM_MINIALU4_X62.9 6 9 15 17
c0 37 0 0.0784f
c1 35 0 0.127492f
c2 33 0 0.527141f
c3 31 0 0.04452f
c4 30 0 0.195452f
c5 29 0 0.03801f
c6 28 0 0.156157f
c7 27 0 0.041268f
c8 26 0 0.03192f
c9 23 0 0.208332f
c10 13 0 0.06612f
c11 9 0 0.493712f
c12 4 0 0.280532f
c13 3 0 0.609444f
c14 2 0 0.14186f
r15 40 42 0.0527007
r16 37 40 0.0148571
r17 33 42 1.19048
r18 30 33 0.0446983
r19 30 31 0.329524
r20 28 37 0.024431
r21 28 29 0.325714
r22 27 29 0.0446983
r23 26 35 0.0451795
r24 26 27 0.0876191
r25 21 31 0.0676349
r26 21 23 0.122857
r27 18 40 11.07
r28 18 35 7.805
r29 18 23 5.17667
r30 17 18 0.998182
r31 15 18 1.82727
r32 11 13 10.7143
r33 7 13 0.587288
r34 7 9 80.3571
r35 4 18 8.7632
r36 4 6 41.0714
r37 3 11 0.587288
r38 2 18 8.7632
r39 2 3 191.071
.ends

.subckt PM_MINIALU4_COUT 1 3 23
c0 21 0 2.30537f
c1 16 0 0.113381f
c2 15 0 0.09149f
c3 14 0 0.284713f
c4 11 0 0.114332f
c5 9 0 0.07649f
c6 8 0 0.385523f
c7 4 0 0.06144f
r8 21 23 0.0718176
r9 20 21 6.374
r10 16 18 0.0664032
r11 14 15 0.08
r12 9 26 0.0366453
r13 9 11 0.1
r14 8 26 0.045807
r15 8 15 0.809524
r16 5 16 0.012
r17 5 14 0.6
r18 4 29 0.16161
r19 4 20 0.0477743
r20 4 26 0.68
r21 4 18 15.61
r22 4 11 7.765
r23 3 29 1.83475
r24 1 4 4.02
.ends

.subckt PM_MINIALU4_VSS 1 6 35 69 103 137 171 205 239 273 307 341 375 376 442
+ 443 509 510 576 577 643 676 709 710 767 768 825 826 883 884 941 942 1014 1015
+ 1087 1088 1160 1161 1233 1234 1306 1307 1379 1380 1452 1453 1525 1526 1598
+ 1599 1671 1672 1744 1745 1817 1818 1890 1891 1943 1944 1996 1997 2253 2254
+ 2255 2256 2257 2258 2645
c0 2645 0 0.152f
c1 2571 0 2.03225f
c2 2569 0 2.07962f
c3 2567 0 0.45046f
c4 2565 0 0.0854f
c5 2564 0 0.07394f
c6 2563 0 0.0777f
c7 2560 0 0.08064f
c8 2558 0 0.0805f
c9 2556 0 0.064206f
c10 2554 0 0.07784f
c11 2552 0 0.0777f
c12 2551 0 0.064206f
c13 2550 0 0.0777f
c14 2549 0 0.064206f
c15 2548 0 0.0777f
c16 2547 0 0.064206f
c17 2546 0 0.02912f
c18 2545 0 0.042f
c19 2544 0 0.064206f
c20 2543 0 0.0777f
c21 2542 0 0.07394f
c22 2541 0 0.084542f
c23 2540 0 0.07394f
c24 2539 0 2.42845f
c25 2536 0 0.540764f
c26 2534 0 0.1237f
c27 2533 0 0.1237f
c28 2532 0 0.172128f
c29 2526 0 0.609206f
c30 2521 0 0.789372f
c31 2516 0 1.18697f
c32 2515 0 0.062988f
c33 2509 0 0.19274f
c34 2504 0 0.70794f
c35 2503 0 0.45034f
c36 2493 0 0.206452f
c37 2491 0 0.02912f
c38 2485 0 0.129172f
c39 2483 0 0.02912f
c40 2478 0 0.49059f
c41 2475 0 0.156612f
c42 2470 0 0.085164f
c43 2464 0 0.38594f
c44 2460 0 0.129172f
c45 2458 0 0.02912f
c46 2455 0 0.42389f
c47 2454 0 0.49634f
c48 2450 0 0.1321f
c49 2449 0 0.1237f
c50 2448 0 0.085888f
c51 2446 0 0.17089f
c52 2429 0 0.1237f
c53 2428 0 1.14135f
c54 2424 0 0.736052f
c55 2420 0 0.732023f
c56 2419 0 0.08841f
c57 2407 0 0.903982f
c58 2404 0 0.45034f
c59 2400 0 0.54694f
c60 2396 0 0.45034f
c61 2394 0 0.874772f
c62 2392 0 0.47274f
c63 2390 0 0.45034f
c64 2387 0 0.44544f
c65 2385 0 0.354244f
c66 2383 0 0.46154f
c67 2381 0 0.805066f
c68 2379 0 0.394844f
c69 2376 0 0.38594f
c70 2375 0 0.58144f
c71 2372 0 0.59264f
c72 2369 0 0.45034f
c73 2368 0 0.38594f
c74 2365 0 0.45034f
c75 2363 0 0.46414f
c76 2362 0 0.43424f
c77 2358 0 0.43424f
c78 2357 0 0.45034f
c79 2356 0 0.45034f
c80 2354 0 0.45034f
c81 2351 0 0.54694f
c82 2350 0 0.54694f
c83 2348 0 0.65964f
c84 2345 0 0.45034f
c85 2344 0 0.46154f
c86 2340 0 0.73524f
c87 2339 0 0.72404f
c88 2338 0 0.46154f
c89 2336 0 0.56619f
c90 2332 0 0.926382f
c91 2331 0 1.46841f
c92 2330 0 0.96554f
c93 2315 0 0.06144f
c94 2028 0 0.042f
c95 2027 0 0.0578737f
c96 2026 0 0.087192f
c97 2022 0 0.252512f
c98 2013 0 0.129281f
c99 2011 0 0.029568f
c100 1975 0 0.042f
c101 1974 0 0.0577485f
c102 1973 0 0.08428f
c103 1969 0 0.254192f
c104 1960 0 0.129172f
c105 1958 0 0.02912f
c106 1922 0 0.042f
c107 1921 0 0.0577485f
c108 1920 0 0.08428f
c109 1916 0 0.252512f
c110 1907 0 0.127492f
c111 1905 0 0.02912f
c112 1865 0 0.064206f
c113 1864 0 0.02912f
c114 1863 0 0.042f
c115 1862 0 0.064206f
c116 1861 0 0.02912f
c117 1860 0 0.42782f
c118 1854 0 0.127492f
c119 1852 0 0.02912f
c120 1851 0 0.085164f
c121 1841 0 0.127492f
c122 1839 0 0.02912f
c123 1838 0 0.08634f
c124 1792 0 0.064206f
c125 1791 0 0.02912f
c126 1790 0 0.042f
c127 1789 0 0.064206f
c128 1788 0 0.02912f
c129 1787 0 0.042f
c130 1781 0 0.127492f
c131 1779 0 0.02912f
c132 1778 0 0.085164f
c133 1768 0 0.127492f
c134 1766 0 0.02912f
c135 1765 0 0.08634f
c136 1719 0 0.064206f
c137 1718 0 0.02912f
c138 1717 0 0.042f
c139 1716 0 0.064206f
c140 1715 0 0.02912f
c141 1714 0 0.042f
c142 1708 0 0.127492f