* SPICE NETLIST
***************************************

.SUBCKT mimcap_g13 plus minus
.ENDS
***************************************
.SUBCKT spiral_inductor_lvs pos neg
.ENDS
***************************************
.SUBCKT nor02ii VSS VDD Y A1 A0
** N=7 EP=5 IP=0 FDC=6
M0 VSS A1 6 VSS nmos L=1.4e-07 W=3.5e-07 $X=805 $Y=1190 $D=19
M1 Y A0 VSS VSS nmos L=1.4e-07 W=3.5e-07 $X=1365 $Y=1190 $D=19
M2 VSS 6 Y VSS nmos L=1.4e-07 W=3.5e-07 $X=1925 $Y=1190 $D=19
M3 VDD A1 6 VDD pmos L=1.4e-07 W=7.7e-07 $X=805 $Y=6020 $D=25
M4 7 A0 VDD VDD pmos L=1.4e-07 W=1.19e-06 $X=1400 $Y=6020 $D=25
M5 Y 6 7 VDD pmos L=1.4e-07 W=1.19e-06 $X=1820 $Y=6020 $D=25
.ENDS
***************************************
.SUBCKT xnor2 VDD VSS Y A0 A1
** N=9 EP=5 IP=0 FDC=10
M0 7 A0 6 VSS nmos L=1.4e-07 W=7.7e-07 $X=805 $Y=1610 $D=19
M1 VSS A1 7 VSS nmos L=1.4e-07 W=7.7e-07 $X=1225 $Y=1610 $D=19
M2 Y A1 8 VSS nmos L=1.4e-07 W=7.7e-07 $X=2345 $Y=1610 $D=19
M3 8 A0 Y VSS nmos L=1.4e-07 W=7.7e-07 $X=2905 $Y=1610 $D=19
M4 VSS 6 8 VSS nmos L=1.4e-07 W=7.7e-07 $X=3465 $Y=1610 $D=19
M5 6 A0 VDD VDD pmos L=1.4e-07 W=1.19e-06 $X=1175 $Y=4585 $D=25
M6 VDD A1 6 VDD pmos L=1.4e-07 W=1.19e-06 $X=1735 $Y=4585 $D=25
M7 9 A0 VDD VDD pmos L=1.4e-07 W=2.24e-06 $X=2365 $Y=4620 $D=25
M8 Y A1 9 VDD pmos L=1.4e-07 W=2.24e-06 $X=2855 $Y=4585 $D=25
M9 VDD 6 Y VDD pmos L=1.4e-07 W=1.19e-06 $X=3450 $Y=4620 $D=25
.ENDS
***************************************
.SUBCKT mux21 VSS VDD Y S0 A1 A0
** N=12 EP=6 IP=0 FDC=12
M0 VSS S0 7 VSS nmos L=1.4e-07 W=3.5e-07 $X=850 $Y=1610 $D=19
M1 8 S0 VSS VSS nmos L=1.4e-07 W=7.7e-07 $X=1445 $Y=1190 $D=19
M2 9 A1 8 VSS nmos L=1.4e-07 W=7.7e-07 $X=1865 $Y=1190 $D=19
M3 10 A0 9 VSS nmos L=1.4e-07 W=7.7e-07 $X=2425 $Y=1190 $D=19
M4 VSS 7 10 VSS nmos L=1.4e-07 W=7.7e-07 $X=2845 $Y=1190 $D=19
M5 Y 9 VSS VSS nmos L=1.4e-07 W=7.7e-07 $X=3405 $Y=1190 $D=19
M6 VDD S0 7 VDD pmos L=1.4e-07 W=7.7e-07 $X=850 $Y=5670 $D=25
M7 11 S0 VDD VDD pmos L=1.4e-07 W=1.54e-06 $X=1445 $Y=5670 $D=25
M8 9 A0 11 VDD pmos L=1.4e-07 W=1.54e-06 $X=1865 $Y=5670 $D=25
M9 12 A1 9 VDD pmos L=1.4e-07 W=1.54e-06 $X=2425 $Y=5670 $D=25
M10 VDD 7 12 VDD pmos L=1.4e-07 W=1.54e-06 $X=2845 $Y=5670 $D=25
M11 Y 9 VDD VDD pmos L=1.4e-07 W=1.54e-06 $X=3405 $Y=5670 $D=25
.ENDS
***************************************
.SUBCKT ao22 VSS VDD Y A1 B0 B1 A0
** N=11 EP=7 IP=0 FDC=10
M0 8 A1 VSS VSS nmos L=1.4e-07 W=7.7e-07 $X=945 $Y=1190 $D=19
M1 9 A0 8 VSS nmos L=1.4e-07 W=7.7e-07 $X=1365 $Y=1190 $D=19
M2 10 B0 9 VSS nmos L=1.4e-07 W=7.7e-07 $X=1925 $Y=1190 $D=19
M3 VSS B1 10 VSS nmos L=1.4e-07 W=7.7e-07 $X=2345 $Y=1190 $D=19
M4 Y 9 VSS VSS nmos L=1.4e-07 W=3.5e-07 $X=2940 $Y=1610 $D=19
M5 11 A1 VDD VDD pmos L=1.4e-07 W=1.19e-06 $X=805 $Y=6020 $D=25
M6 9 B0 11 VDD pmos L=1.4e-07 W=1.19e-06 $X=1365 $Y=6020 $D=25
M7 11 B1 9 VDD pmos L=1.4e-07 W=1.19e-06 $X=1925 $Y=6020 $D=25
M8 VDD A0 11 VDD pmos L=1.4e-07 W=1.19e-06 $X=2485 $Y=6020 $D=25
M9 Y 9 VDD VDD pmos L=1.4e-07 W=7.7e-07 $X=3080 $Y=6020 $D=25
.ENDS
***************************************
.SUBCKT xor2 VSS VDD Y A1 A0
** N=10 EP=5 IP=0 FDC=12
M0 7 A0 6 VSS nmos L=1.4e-07 W=7.7e-07 $X=805 $Y=1330 $D=19
M1 VSS A1 7 VSS nmos L=1.4e-07 W=7.7e-07 $X=1225 $Y=1330 $D=19
M2 8 6 VSS VSS nmos L=1.4e-07 W=7.7e-07 $X=1785 $Y=1330 $D=19
M3 9 A1 8 VSS nmos L=1.4e-07 W=7.7e-07 $X=2345 $Y=1330 $D=19
M4 8 A0 9 VSS nmos L=1.4e-07 W=7.7e-07 $X=2905 $Y=1330 $D=19
M5 Y 9 VSS VSS nmos L=1.4e-07 W=3.5e-07 $X=4025 $Y=1330 $D=19
M6 6 A0 VDD VDD pmos L=1.4e-07 W=1.19e-06 $X=875 $Y=5880 $D=25
M7 VDD A1 6 VDD pmos L=1.4e-07 W=1.19e-06 $X=1435 $Y=5880 $D=25
M8 9 6 VDD VDD pmos L=1.4e-07 W=1.19e-06 $X=1995 $Y=5880 $D=25
M9 10 A1 9 VDD pmos L=1.4e-07 W=2.24e-06 $X=2590 $Y=4830 $D=25
M10 VDD A0 10 VDD pmos L=1.4e-07 W=2.24e-06 $X=3010 $Y=4830 $D=25
M11 Y 9 VDD VDD pmos L=1.4e-07 W=7.7e-07 $X=3605 $Y=4830 $D=25
.ENDS
***************************************
.SUBCKT dff VSS VDD QB Q D CLK
** N=20 EP=6 IP=0 FDC=28
M0 VSS 9 7 VSS nmos L=1.4e-07 W=3.5e-07 $X=805 $Y=2310 $D=19
M1 8 12 VSS VSS nmos L=1.4e-07 W=3.5e-07 $X=1365 $Y=2310 $D=19
M2 9 7 8 VSS nmos L=1.4e-07 W=3.5e-07 $X=1785 $Y=2310 $D=19
M3 10 D 9 VSS nmos L=1.4e-07 W=1.19e-06 $X=2380 $Y=1575 $D=19
M4 VSS 11 10 VSS nmos L=1.4e-07 W=1.19e-06 $X=2800 $Y=1575 $D=19
M5 VSS CLK 11 VSS nmos L=1.4e-07 W=7.7e-07 $X=3990 $Y=1645 $D=19
M6 12 11 VSS VSS nmos L=1.4e-07 W=7.7e-07 $X=4550 $Y=1645 $D=19
M7 13 12 VSS VSS nmos L=1.4e-07 W=1.19e-06 $X=5670 $Y=1960 $D=19
M8 14 9 13 VSS nmos L=1.4e-07 W=1.19e-06 $X=6090 $Y=1960 $D=19
M9 15 11 14 VSS nmos L=1.4e-07 W=3.5e-07 $X=6685 $Y=2660 $D=19
M10 VSS 16 15 VSS nmos L=1.4e-07 W=3.5e-07 $X=7105 $Y=2660 $D=19
M11 16 14 VSS VSS nmos L=1.4e-07 W=3.5e-07 $X=7665 $Y=2660 $D=19
M12 VSS 14 QB VSS nmos L=1.4e-07 W=7.7e-07 $X=8715 $Y=1330 $D=19
M13 Q QB VSS VSS nmos L=1.4e-07 W=7.7e-07 $X=9275 $Y=1330 $D=19
M14 VDD 9 7 VDD pmos L=1.4e-07 W=3.5e-07 $X=805 $Y=4655 $D=25
M15 17 11 VDD VDD pmos L=1.4e-07 W=3.5e-07 $X=1365 $Y=4655 $D=25
M16 9 7 17 VDD pmos L=1.4e-07 W=3.5e-07 $X=1785 $Y=4655 $D=25
M17 18 D 9 VDD pmos L=1.4e-07 W=2.24e-06 $X=2380 $Y=4235 $D=25
M18 VDD 12 18 VDD pmos L=1.4e-07 W=2.24e-06 $X=2800 $Y=4235 $D=25
M19 VDD CLK 11 VDD pmos L=1.4e-07 W=1.54e-06 $X=3920 $Y=4935 $D=25
M20 12 11 VDD VDD pmos L=1.4e-07 W=1.54e-06 $X=4480 $Y=4935 $D=25
M21 19 11 VDD VDD pmos L=1.4e-07 W=2.24e-06 $X=5600 $Y=4235 $D=25
M22 14 9 19 VDD pmos L=1.4e-07 W=2.24e-06 $X=6020 $Y=4235 $D=25
M23 20 12 14 VDD pmos L=1.4e-07 W=3.5e-07 $X=6615 $Y=5285 $D=25
M24 VDD 16 20 VDD pmos L=1.4e-07 W=3.5e-07 $X=7035 $Y=5285 $D=25
M25 16 14 VDD VDD pmos L=1.4e-07 W=3.5e-07 $X=7595 $Y=5285 $D=25
M26 VDD 14 QB VDD pmos L=1.4e-07 W=1.54e-06 $X=8715 $Y=5530 $D=25
M27 Q QB VDD VDD pmos L=1.4e-07 W=1.54e-06 $X=9275 $Y=5530 $D=25
.ENDS
***************************************
.SUBCKT dffs VDD VSS QB Q D S CLK
** N=23 EP=7 IP=0 FDC=34
M0 8 14 VSS VSS nmos L=1.4e-07 W=1.19e-06 $X=805 $Y=1470 $D=19
M1 9 D 8 VSS nmos L=1.4e-07 W=1.19e-06 $X=1225 $Y=1470 $D=19
M2 10 12 9 VSS nmos L=1.4e-07 W=3.5e-07 $X=1820 $Y=2310 $D=19
M3 VSS 15 10 VSS nmos L=1.4e-07 W=3.5e-07 $X=2240 $Y=2310 $D=19
M4 11 9 VSS VSS nmos L=1.4e-07 W=7.7e-07 $X=2835 $Y=1890 $D=19
M5 12 S 11 VSS nmos L=1.4e-07 W=7.7e-07 $X=3255 $Y=1890 $D=19
M6 13 12 VSS VSS nmos L=1.4e-07 W=7.7e-07 $X=4445 $Y=2310 $D=19
M7 VSS CLK 14 VSS nmos L=1.4e-07 W=7.7e-07 $X=5635 $Y=2310 $D=19
M8 15 14 VSS VSS nmos L=1.4e-07 W=7.7e-07 $X=6195 $Y=2310 $D=19
M9 17 14 16 VSS nmos L=1.4e-07 W=3.5e-07 $X=7700 $Y=2520 $D=19
M10 18 13 17 VSS nmos L=1.4e-07 W=1.19e-06 $X=8295 $Y=1680 $D=19
M11 VSS 15 18 VSS nmos L=1.4e-07 W=1.19e-06 $X=8715 $Y=1680 $D=19
M12 19 20 VSS VSS nmos L=1.4e-07 W=3.5e-07 $X=9310 $Y=2520 $D=19
M13 16 S 19 VSS nmos L=1.4e-07 W=3.5e-07 $X=9730 $Y=2520 $D=19
M14 20 17 VSS VSS nmos L=1.4e-07 W=3.5e-07 $X=10465 $Y=1330 $D=19
M15 VSS 17 QB VSS nmos L=1.4e-07 W=7.7e-07 $X=11655 $Y=1330 $D=19
M16 Q QB VSS VSS nmos L=1.4e-07 W=7.7e-07 $X=12215 $Y=1330 $D=19
M17 21 15 VDD VDD pmos L=1.4e-07 W=2.24e-06 $X=805 $Y=4830 $D=25
M18 9 D 21 VDD pmos L=1.4e-07 W=2.24e-06 $X=1225 $Y=4830 $D=25
M19 22 12 9 VDD pmos L=1.4e-07 W=3.5e-07 $X=1820 $Y=6335 $D=25
M20 VDD 14 22 VDD pmos L=1.4e-07 W=3.5e-07 $X=2240 $Y=6335 $D=25
M21 12 9 VDD VDD pmos L=1.4e-07 W=1.05e-06 $X=2835 $Y=5635 $D=25
M22 VDD S 12 VDD pmos L=1.4e-07 W=1.05e-06 $X=3395 $Y=5635 $D=25
M23 13 12 VDD VDD pmos L=1.4e-07 W=1.54e-06 $X=3990 $Y=5145 $D=25
M24 VDD CLK 14 VDD pmos L=1.4e-07 W=1.54e-06 $X=5635 $Y=5180 $D=25
M25 15 14 VDD VDD pmos L=1.4e-07 W=1.54e-06 $X=6195 $Y=5180 $D=25
M26 17 15 16 VDD pmos L=1.4e-07 W=3.5e-07 $X=7700 $Y=4830 $D=25
M27 23 13 17 VDD pmos L=1.4e-07 W=2.24e-06 $X=8295 $Y=4830 $D=25
M28 VDD 14 23 VDD pmos L=1.4e-07 W=2.24e-06 $X=8715 $Y=4830 $D=25
M29 16 20 VDD VDD pmos L=1.4e-07 W=3.5e-07 $X=9310 $Y=5530 $D=25
M30 VDD S 16 VDD pmos L=1.4e-07 W=3.5e-07 $X=9870 $Y=5530 $D=25
M31 20 17 VDD VDD pmos L=1.4e-07 W=3.5e-07 $X=10430 $Y=5530 $D=25
M32 VDD 17 QB VDD pmos L=1.4e-07 W=1.54e-06 $X=11655 $Y=5530 $D=25
M33 Q QB VDD VDD pmos L=1.4e-07 W=1.54e-06 $X=12215 $Y=5530 $D=25
.ENDS
***************************************
.SUBCKT ICV_1 1 2 3 4 5 6 7 8 9
** N=10 EP=9 IP=13 FDC=46
X0 4 5 6 1 2 3 mux21 $T=0 0 0 0 $X=0 $Y=0
X1 5 4 10 9 6 7 8 dffs $T=4410 0 0 0 $X=4410 $Y=0
.ENDS
***************************************
.SUBCKT ICV_2 1 2 3 4 5 6 7 8 9 10
** N=11 EP=10 IP=13 FDC=46
X0 4 5 6 1 2 3 mux21 $T=0 0 0 0 $X=0 $Y=0
X1 5 4 11 10 7 8 9 dffs $T=-13230 0 0 0 $X=-13230 $Y=0
.ENDS
***************************************
.SUBCKT ICV_3 1 2 3 4 5 6 7 8 9
** N=9 EP=9 IP=11 FDC=22
X0 3 4 5 1 2 xnor2 $T=0 0 0 0 $X=0 $Y=0
X1 4 3 9 6 7 8 mux21 $T=4900 0 0 0 $X=4900 $Y=0
.ENDS
***************************************
.SUBCKT nand04 VSS Y VDD A3 A2 A1 A0
** N=10 EP=7 IP=0 FDC=8
M0 8 A3 VSS VSS nmos L=1.4e-07 W=1.61e-06 $X=1305 $Y=1190 $D=19
M1 9 A2 8 VSS nmos L=1.4e-07 W=1.61e-06 $X=1725 $Y=1190 $D=19
M2 10 A1 9 VSS nmos L=1.4e-07 W=1.61e-06 $X=2145 $Y=1190 $D=19
M3 Y A0 10 VSS nmos L=1.4e-07 W=1.61e-06 $X=2565 $Y=1190 $D=19
M4 Y A3 VDD VDD pmos L=1.4e-07 W=1.68e-06 $X=1095 $Y=5530 $D=25
M5 VDD A2 Y VDD pmos L=1.4e-07 W=1.68e-06 $X=1655 $Y=5530 $D=25
M6 Y A1 VDD VDD pmos L=1.4e-07 W=1.68e-06 $X=2215 $Y=5530 $D=25
M7 VDD A0 Y VDD pmos L=1.4e-07 W=1.68e-06 $X=2775 $Y=5530 $D=25
.ENDS
***************************************
.SUBCKT nor02 VSS VDD Y A0 A1
** N=6 EP=5 IP=0 FDC=4
M0 Y A0 VSS VSS nmos L=1.4e-07 W=3.5e-07 $X=875 $Y=1190 $D=19
M1 VSS A1 Y VSS nmos L=1.4e-07 W=3.5e-07 $X=1435 $Y=1190 $D=19
M2 6 A0 VDD VDD pmos L=1.4e-07 W=1.19e-06 $X=1015 $Y=6020 $D=25
M3 Y A1 6 VDD pmos L=1.4e-07 W=1.19e-06 $X=1435 $Y=6020 $D=25
.ENDS
***************************************
.SUBCKT or02 VSS VDD Y A1 A0
** N=7 EP=5 IP=0 FDC=6
M0 6 A1 VSS VSS nmos L=1.4e-07 W=3.5e-07 $X=805 $Y=1330 $D=19
M1 VSS A0 6 VSS nmos L=1.4e-07 W=3.5e-07 $X=1365 $Y=1330 $D=19
M2 Y 6 VSS VSS nmos L=1.4e-07 W=3.5e-07 $X=1925 $Y=1330 $D=19
M3 7 A1 6 VDD pmos L=1.4e-07 W=1.19e-06 $X=910 $Y=5880 $D=25
M4 VDD A0 7 VDD pmos L=1.4e-07 W=1.19e-06 $X=1330 $Y=5880 $D=25
M5 Y 6 VDD VDD pmos L=1.4e-07 W=7.7e-07 $X=1925 $Y=5880 $D=25
.ENDS
***************************************
.SUBCKT or04 VSS VDD Y A3 A2 A1 A0
** N=11 EP=7 IP=0 FDC=10
M0 8 A3 VSS VSS nmos L=1.4e-07 W=4.9e-07 $X=1225 $Y=1190 $D=19
M1 VSS A2 8 VSS nmos L=1.4e-07 W=4.9e-07 $X=1785 $Y=1190 $D=19
M2 8 A1 VSS VSS nmos L=1.4e-07 W=4.9e-07 $X=2345 $Y=1190 $D=19
M3 VSS A0 8 VSS nmos L=1.4e-07 W=4.9e-07 $X=2905 $Y=1190 $D=19
M4 Y 8 VSS VSS nmos L=1.4e-07 W=3.5e-07 $X=3500 $Y=1190 $D=19
M5 9 A3 8 VDD pmos L=1.4e-07 W=3.01e-06 $X=1330 $Y=4200 $D=25
M6 10 A2 9 VDD pmos L=1.4e-07 W=3.01e-06 $X=1750 $Y=4200 $D=25
M7 11 A1 10 VDD pmos L=1.4e-07 W=3.01e-06 $X=2170 $Y=4200 $D=25
M8 VDD A0 11 VDD pmos L=1.4e-07 W=3.01e-06 $X=2590 $Y=4200 $D=25
M9 Y 8 VDD VDD pmos L=1.4e-07 W=7.7e-07 $X=3185 $Y=4200 $D=25
.ENDS
***************************************
.SUBCKT nand02 VSS Y VDD A1 A0
** N=6 EP=5 IP=0 FDC=4
M0 6 A1 VSS VSS nmos L=1.4e-07 W=7.7e-07 $X=875 $Y=1190 $D=19
M1 Y A0 6 VSS nmos L=1.4e-07 W=7.7e-07 $X=1295 $Y=1190 $D=19
M2 Y A1 VDD VDD pmos L=1.4e-07 W=1.05e-06 $X=875 $Y=6160 $D=25
M3 VDD A0 Y VDD pmos L=1.4e-07 W=1.05e-06 $X=1435 $Y=6160 $D=25
.ENDS
***************************************
.SUBCKT inv01 VSS VDD Y A
** N=4 EP=4 IP=0 FDC=2
M0 Y A VSS VSS nmos L=1.4e-07 W=3.5e-07 $X=910 $Y=1820 $D=19
M1 Y A VDD VDD pmos L=1.4e-07 W=7.7e-07 $X=910 $Y=5600 $D=25
.ENDS
***************************************
.SUBCKT nor04 VSS VDD Y A0 A1 A2 A3
** N=10 EP=7 IP=0 FDC=8
M0 Y A0 VSS VSS nmos L=1.4e-07 W=7.7e-07 $X=1095 $Y=1190 $D=19
M1 VSS A1 Y VSS nmos L=1.4e-07 W=7.7e-07 $X=1655 $Y=1190 $D=19
M2 Y A2 VSS VSS nmos L=1.4e-07 W=7.7e-07 $X=2215 $Y=1190 $D=19
M3 VSS A3 Y VSS nmos L=1.4e-07 W=7.7e-07 $X=2775 $Y=1190 $D=19
M4 8 A0 VDD VDD pmos L=1.4e-07 W=2.24e-06 $X=1095 $Y=4970 $D=25
M5 9 A1 8 VDD pmos L=1.4e-07 W=2.24e-06 $X=1515 $Y=4970 $D=25
M6 10 A2 9 VDD pmos L=1.4e-07 W=2.24e-06 $X=1935 $Y=4970 $D=25
M7 Y A3 10 VDD pmos L=1.4e-07 W=2.24e-06 $X=2355 $Y=4970 $D=25
.ENDS
***************************************
.SUBCKT nand03 VSS Y VDD A2 A1 A0
** N=8 EP=6 IP=0 FDC=6
M0 7 A2 VSS VSS nmos L=1.4e-07 W=1.19e-06 $X=915 $Y=1190 $D=19
M1 8 A1 7 VSS nmos L=1.4e-07 W=1.19e-06 $X=1335 $Y=1190 $D=19
M2 Y A0 8 VSS nmos L=1.4e-07 W=1.19e-06 $X=1755 $Y=1190 $D=19
M3 VDD A2 Y VDD pmos L=1.4e-07 W=1.26e-06 $X=775 $Y=5950 $D=25
M4 Y A1 VDD VDD pmos L=1.4e-07 W=1.26e-06 $X=1335 $Y=5950 $D=25
M5 VDD A0 Y VDD pmos L=1.4e-07 W=1.26e-06 $X=1895 $Y=5950 $D=25
.ENDS
***************************************
.SUBCKT ICV_4 1 2 3 4 5 6 7 8
** N=8 EP=8 IP=10 FDC=14
X0 3 4 5 1 2 xnor2 $T=0 0 0 0 $X=0 $Y=0
X1 4 8 3 6 7 nand02 $T=-2450 0 0 0 $X=-2450 $Y=0
.ENDS
***************************************
.SUBCKT ICV_5 1 2 3 4 5 6 7 8 9 10
** N=10 EP=10 IP=12 FDC=40
X0 4 5 6 1 2 3 mux21 $T=0 0 0 0 $X=0 $Y=0
X1 4 5 9 10 7 8 dff $T=4410 0 0 0 $X=4410 $Y=0
.ENDS
***************************************
.SUBCKT ICV_6 1 2 3 4 5 6 7 8 9
** N=9 EP=9 IP=11 FDC=22
X0 3 4 5 1 2 xnor2 $T=0 0 1 180 $X=-4900 $Y=0
X1 4 3 9 6 7 8 mux21 $T=0 0 0 0 $X=0 $Y=0
.ENDS
***************************************
.SUBCKT dffr VDD VSS QB Q D R CLK
** N=23 EP=7 IP=0 FDC=34
M0 8 13 VSS VSS nmos L=1.4e-07 W=1.19e-06 $X=705 $Y=1470 $D=19
M1 9 D 8 VSS nmos L=1.4e-07 W=1.19e-06 $X=1125 $Y=1470 $D=19
M2 10 11 9 VSS nmos L=1.4e-07 W=3.5e-07 $X=1720 $Y=2310 $D=19
M3 VSS 14 10 VSS nmos L=1.4e-07 W=3.5e-07 $X=2140 $Y=2310 $D=19
M4 11 9 VSS VSS nmos L=1.4e-07 W=7.7e-07 $X=2735 $Y=1890 $D=19
M5 VSS R 11 VSS nmos L=1.4e-07 W=7.7e-07 $X=3295 $Y=1890 $D=19
M6 12 11 VSS VSS nmos L=1.4e-07 W=3.5e-07 $X=3890 $Y=2310 $D=19
M7 VSS CLK 13 VSS nmos L=1.4e-07 W=7.7e-07 $X=5395 $Y=2310 $D=19
M8 14 13 VSS VSS nmos L=1.4e-07 W=7.7e-07 $X=5955 $Y=2310 $D=19
M9 16 13 15 VSS nmos L=1.4e-07 W=3.5e-07 $X=7460 $Y=2625 $D=19
M10 17 12 16 VSS nmos L=1.4e-07 W=1.19e-06 $X=8055 $Y=1785 $D=19
M11 VSS 14 17 VSS nmos L=1.4e-07 W=1.19e-06 $X=8475 $Y=1785 $D=19
M12 15 18 VSS VSS nmos L=1.4e-07 W=3.5e-07 $X=9070 $Y=1785 $D=19
M13 VSS R 15 VSS nmos L=1.4e-07 W=3.5e-07 $X=9630 $Y=1785 $D=19
M14 18 16 VSS VSS nmos L=1.4e-07 W=3.5e-07 $X=10190 $Y=1785 $D=19
M15 VSS 16 QB VSS nmos L=1.4e-07 W=7.7e-07 $X=11345 $Y=1330 $D=19
M16 Q QB VSS VSS nmos L=1.4e-07 W=7.7e-07 $X=11905 $Y=1330 $D=19
M17 19 14 VDD VDD pmos L=1.4e-07 W=2.24e-06 $X=705 $Y=4830 $D=25
M18 9 D 19 VDD pmos L=1.4e-07 W=2.24e-06 $X=1125 $Y=4830 $D=25
M19 20 11 9 VDD pmos L=1.4e-07 W=3.5e-07 $X=1720 $Y=6335 $D=25
M20 VDD 13 20 VDD pmos L=1.4e-07 W=3.5e-07 $X=2140 $Y=6335 $D=25
M21 21 9 VDD VDD pmos L=1.4e-07 W=1.05e-06 $X=2735 $Y=5635 $D=25
M22 11 R 21 VDD pmos L=1.4e-07 W=1.05e-06 $X=3155 $Y=5635 $D=25
M23 12 11 VDD VDD pmos L=1.4e-07 W=7.7e-07 $X=4275 $Y=5915 $D=25
M24 VDD CLK 13 VDD pmos L=1.4e-07 W=1.54e-06 $X=5395 $Y=5180 $D=25
M25 14 13 VDD VDD pmos L=1.4e-07 W=1.54e-06 $X=5955 $Y=5180 $D=25
M26 16 14 15 VDD pmos L=1.4e-07 W=3.5e-07 $X=7460 $Y=4830 $D=25
M27 22 12 16 VDD pmos L=1.4e-07 W=2.24e-06 $X=8055 $Y=4830 $D=25
M28 VDD 13 22 VDD pmos L=1.4e-07 W=2.24e-06 $X=8475 $Y=4830 $D=25
M29 23 18 VDD VDD pmos L=1.4e-07 W=3.5e-07 $X=9070 $Y=4830 $D=25
M30 15 R 23 VDD pmos L=1.4e-07 W=3.5e-07 $X=9490 $Y=4830 $D=25
M31 18 16 VDD VDD pmos L=1.4e-07 W=7.7e-07 $X=10190 $Y=6300 $D=25
M32 VDD 16 QB VDD pmos L=1.4e-07 W=1.54e-06 $X=11345 $Y=5530 $D=25
M33 Q QB VDD VDD pmos L=1.4e-07 W=1.54e-06 $X=11905 $Y=5530 $D=25
.ENDS
***************************************
.SUBCKT ICV_7 1 2 3 4 5 6 7 8 9 10
** N=10 EP=10 IP=12 FDC=40
X0 4 5 6 1 2 3 mux21 $T=0 0 0 0 $X=0 $Y=0
X1 4 5 9 10 7 8 dff $T=0 0 1 180 $X=-10290 $Y=0
.ENDS
***************************************
.SUBCKT ICV_8 1 2 3 4 5 6 7 8
** N=8 EP=8 IP=10 FDC=14
X0 3 4 5 1 2 xnor2 $T=2450 0 0 0 $X=2450 $Y=0
X1 4 8 3 6 7 nand02 $T=0 0 0 0 $X=0 $Y=0
.ENDS
***************************************
.SUBCKT ICV_9 1 2 3 4 5 6 7 8 9 10 11 12
** N=12 EP=12 IP=14 FDC=26
X0 4 5 6 1 2 3 mux21 $T=7350 0 0 0 $X=7350 $Y=0
X1 10 11 5 4 12 7 8 9 ICV_8 $T=0 0 0 0 $X=0 $Y=0
.ENDS
***************************************
.SUBCKT ICV_10 1 2 3 4 5 6 7 8
** N=8 EP=8 IP=10 FDC=14
X0 3 4 5 1 2 xnor2 $T=-4900 0 0 0 $X=-4900 $Y=0
X1 4 3 8 6 7 nor02 $T=0 0 0 0 $X=0 $Y=0
.ENDS
***************************************
.SUBCKT nor03 Y VDD VSS A0 A1 A2
** N=8 EP=6 IP=0 FDC=6
M0 VSS A0 Y VSS nmos L=1.4e-07 W=4.2e-07 $X=875 $Y=1190 $D=19
M1 Y A1 VSS VSS nmos L=1.4e-07 W=4.2e-07 $X=1435 $Y=1190 $D=19
M2 VSS A2 Y VSS nmos L=1.4e-07 W=4.2e-07 $X=1995 $Y=1190 $D=19
M3 7 A0 VDD VDD pmos L=1.4e-07 W=1.68e-06 $X=875 $Y=5530 $D=25
M4 8 A1 7 VDD pmos L=1.4e-07 W=1.68e-06 $X=1295 $Y=5530 $D=25
M5 Y A2 8 VDD pmos L=1.4e-07 W=1.68e-06 $X=1715 $Y=5530 $D=25
.ENDS
***************************************
.SUBCKT oai32 VDD Y VSS A0 A1 A2 B1 B0
** N=12 EP=8 IP=0 FDC=10
M0 9 A0 Y VSS nmos L=1.4e-07 W=7.7e-07 $X=805 $Y=1540 $D=19
M1 Y A1 9 VSS nmos L=1.4e-07 W=7.7e-07 $X=1365 $Y=1540 $D=19
M2 9 A2 Y VSS nmos L=1.4e-07 W=7.7e-07 $X=1925 $Y=1540 $D=19
M3 VSS B1 9 VSS nmos L=1.4e-07 W=7.7e-07 $X=2485 $Y=1540 $D=19
M4 9 B0 VSS VSS nmos L=1.4e-07 W=7.7e-07 $X=3045 $Y=1540 $D=19
M5 10 A0 VDD VDD pmos L=1.4e-07 W=2.73e-06 $X=1085 $Y=4480 $D=25
M6 11 A1 10 VDD pmos L=1.4e-07 W=2.73e-06 $X=1505 $Y=4480 $D=25
M7 Y A2 11 VDD pmos L=1.4e-07 W=2.73e-06 $X=1925 $Y=4480 $D=25
M8 12 B1 Y VDD pmos L=1.4e-07 W=2.03e-06 $X=2520 $Y=4480 $D=25
M9 VDD B0 12 VDD pmos L=1.4e-07 W=2.03e-06 $X=2940 $Y=4480 $D=25
.ENDS
***************************************
.SUBCKT and02 VSS VDD Y A0 A1
** N=7 EP=5 IP=0 FDC=6
M0 7 A0 6 VSS nmos L=1.4e-07 W=7.7e-07 $X=945 $Y=1190 $D=19
M1 VSS A1 7 VSS nmos L=1.4e-07 W=7.7e-07 $X=1365 $Y=1190 $D=19
M2 Y 6 VSS VSS nmos L=1.4e-07 W=3.5e-07 $X=1960 $Y=1610 $D=19
M3 6 A0 VDD VDD pmos L=1.4e-07 W=1.05e-06 $X=805 $Y=6160 $D=25
M4 VDD A1 6 VDD pmos L=1.4e-07 W=1.05e-06 $X=1365 $Y=6160 $D=25
M5 Y 6 VDD VDD pmos L=1.4e-07 W=7.7e-07 $X=1960 $Y=6160 $D=25
.ENDS
***************************************
.SUBCKT aoi21 VSS VDD Y A1 A0 B0
** N=8 EP=6 IP=0 FDC=6
M0 7 A1 VSS VSS nmos L=1.4e-07 W=7.7e-07 $X=805 $Y=1170 $D=19
M1 Y A0 7 VSS nmos L=1.4e-07 W=7.7e-07 $X=1225 $Y=1170 $D=19
M2 VSS B0 Y VSS nmos L=1.4e-07 W=3.5e-07 $X=1820 $Y=1590 $D=19
M3 VDD A1 8 VDD pmos L=1.4e-07 W=1.19e-06 $X=805 $Y=6020 $D=25
M4 8 A0 VDD VDD pmos L=1.4e-07 W=1.19e-06 $X=1365 $Y=6020 $D=25
M5 Y B0 8 VDD pmos L=1.4e-07 W=1.19e-06 $X=1925 $Y=6020 $D=25
.ENDS
***************************************
.SUBCKT inv02 VSS VDD Y A
** N=4 EP=4 IP=0 FDC=2
M0 Y A VSS VSS nmos L=1.4e-07 W=7.7e-07 $X=805 $Y=1750 $D=19
M1 Y A VDD VDD pmos L=1.4e-07 W=1.54e-06 $X=805 $Y=4970 $D=25
.ENDS
***************************************
.SUBCKT aoi22 VSS VDD Y A1 A0 B0 B1
** N=10 EP=7 IP=0 FDC=8
M0 8 A1 VSS VSS nmos L=1.4e-07 W=7.7e-07 $X=945 $Y=1190 $D=19
M1 Y A0 8 VSS nmos L=1.4e-07 W=7.7e-07 $X=1365 $Y=1190 $D=19
M2 9 B0 Y VSS nmos L=1.4e-07 W=7.7e-07 $X=1925 $Y=1190 $D=19
M3 VSS B1 9 VSS nmos L=1.4e-07 W=7.7e-07 $X=2345 $Y=1190 $D=19
M4 VDD A1 10 VDD pmos L=1.4e-07 W=1.19e-06 $X=805 $Y=6020 $D=25
M5 10 A0 VDD VDD pmos L=1.4e-07 W=1.19e-06 $X=1365 $Y=6020 $D=25
M6 Y B0 10 VDD pmos L=1.4e-07 W=1.19e-06 $X=1925 $Y=6020 $D=25
M7 10 B1 Y VDD pmos L=1.4e-07 W=1.19e-06 $X=2485 $Y=6020 $D=25
.ENDS
***************************************
.SUBCKT aoi221 VSS Y VDD C0 B0 B1 A1 A0
** N=12 EP=8 IP=0 FDC=10
M0 Y C0 VSS VSS nmos L=1.4e-07 W=3.5e-07 $X=755 $Y=1750 $D=19
M1 9 B0 Y VSS nmos L=1.4e-07 W=7.7e-07 $X=1350 $Y=1330 $D=19
M2 VSS B1 9 VSS nmos L=1.4e-07 W=7.7e-07 $X=1770 $Y=1330 $D=19
M3 10 A1 VSS VSS nmos L=1.4e-07 W=9.1e-07 $X=2365 $Y=1190 $D=19
M4 Y A0 10 VSS nmos L=1.4e-07 W=9.1e-07 $X=2785 $Y=1190 $D=19
M5 11 C0 Y VDD pmos L=1.4e-07 W=1.61e-06 $X=755 $Y=5600 $D=25
M6 12 B0 11 VDD pmos L=1.4e-07 W=1.61e-06 $X=1315 $Y=5600 $D=25
M7 11 B1 12 VDD pmos L=1.4e-07 W=1.61e-06 $X=1875 $Y=5600 $D=25
M8 VDD A1 12 VDD pmos L=1.4e-07 W=1.61e-06 $X=2995 $Y=5600 $D=25
M9 12 A0 VDD VDD pmos L=1.4e-07 W=1.61e-06 $X=3555 $Y=5600 $D=25
.ENDS
***************************************
.SUBCKT oai22 VSS Y VDD B0 B1 A1 A0
** N=10 EP=7 IP=0 FDC=8
M0 VSS B0 8 VSS nmos L=1.4e-07 W=7.7e-07 $X=1295 $Y=1225 $D=19
M1 8 B1 VSS VSS nmos L=1.4e-07 W=7.7e-07 $X=1855 $Y=1225 $D=19
M2 Y A1 8 VSS nmos L=1.4e-07 W=7.7e-07 $X=2415 $Y=1225 $D=19
M3 8 A0 Y VSS nmos L=1.4e-07 W=7.7e-07 $X=2975 $Y=1225 $D=19
M4 9 B0 VDD VDD pmos L=1.4e-07 W=2.03e-06 $X=1435 $Y=5265 $D=25
M5 Y B1 9 VDD pmos L=1.4e-07 W=2.03e-06 $X=1855 $Y=5265 $D=25
M6 10 A1 Y VDD pmos L=1.4e-07 W=2.03e-06 $X=2415 $Y=5265 $D=25
M7 VDD A0 10 VDD pmos L=1.4e-07 W=2.03e-06 $X=2835 $Y=5265 $D=25
.ENDS
***************************************
.SUBCKT MAC_BIST VSS VDD tst_output_flag A[12] A[9] B[6] multiplierOut[31] multiplierOut[8] B[11] multiplierOut[6] multiplierOut[14] multiplierOut[25] B[1] multiplierOut[13] multiplierOut[1] B[12] B[4] multiplierOut[27] multiplierOut[30] A[3]
+ multiplierOut[19] multiplierOut[15] multiplierOut[23] rst tst_mode clk B[5] B[14] multiplierOut[4] B[7] multiplierOut[0] multiplierOut[2] B[10] B[2] multiplierOut[7] multiplierOut[3] B[9] multiplierOut[26] multiplierOut[22] multiplierOut[21]
+ A[5] A[1] multiplierOut[10] B[13] multiplierOut[5] multiplierOut[12] A[11] multiplierOut[29] A[6] A[15] A[2] multiplierOut[28] A[0] A[8] B[3] A[13] B[15] B[8] A[14] multiplierOut[24]
+ multiplierOut[11] multiplierOut[20] multiplierOut[9] A[4] A[7] B[0] A[10] multiplierOut[16] multiplierOut[17] multiplierOut[18]
** N=1120 EP=70 IP=4896 FDC=11308
M0 VSS 6 1 VSS nmos L=1.4e-07 W=3.5e-07 $X=205750 $Y=212095 $D=19
M1 3 88 VSS VSS nmos L=1.4e-07 W=1.19e-06 $X=206345 $Y=211255 $D=19
M2 4 728 3 VSS nmos L=1.4e-07 W=1.19e-06 $X=206765 $Y=211255 $D=19
M3 6 729 4 VSS nmos L=1.4e-07 W=1.19e-06 $X=207185 $Y=211255 $D=19
M4 VSS 12 tst_output_flag VSS nmos L=1.4e-07 W=3.5e-07 $X=229200 $Y=187310 $D=19
M5 8 787 VSS VSS nmos L=1.4e-07 W=1.61e-06 $X=229795 $Y=186050 $D=19
M6 9 788 8 VSS nmos L=1.4e-07 W=1.61e-06 $X=230215 $Y=186050 $D=19
M7 10 794 9 VSS nmos L=1.4e-07 W=1.61e-06 $X=230635 $Y=186050 $D=19
M8 11 778 VSS VSS nmos L=1.4e-07 W=7.7e-07 $X=230635 $Y=211300 $D=19
M9 12 798 10 VSS nmos L=1.4e-07 W=1.61e-06 $X=231055 $Y=186050 $D=19
M10 13 607 11 VSS nmos L=1.4e-07 W=7.7e-07 $X=231195 $Y=211300 $D=19
M11 11 187 13 VSS nmos L=1.4e-07 W=7.7e-07 $X=231755 $Y=211300 $D=19
M12 VDD 6 1 VDD pmos L=1.4e-07 W=7.7e-07 $X=205610 $Y=215875 $D=25
M13 6 88 VDD VDD pmos L=1.4e-07 W=1.4e-06 $X=206205 $Y=215875 $D=25
M14 VDD 728 6 VDD pmos L=1.4e-07 W=1.4e-06 $X=206765 $Y=215875 $D=25
M15 6 729 VDD VDD pmos L=1.4e-07 W=1.4e-06 $X=207325 $Y=215875 $D=25
M16 VDD 12 tst_output_flag VDD pmos L=1.4e-07 W=7.7e-07 $X=229060 $Y=190320 $D=25
M17 12 787 VDD VDD pmos L=1.4e-07 W=1.75e-06 $X=229655 $Y=190320 $D=25
M18 VDD 788 12 VDD pmos L=1.4e-07 W=1.75e-06 $X=230215 $Y=190320 $D=25
M19 13 778 VDD VDD pmos L=1.4e-07 W=1.05e-06 $X=230740 $Y=215245 $D=25
M20 12 794 VDD VDD pmos L=1.4e-07 W=1.75e-06 $X=230775 $Y=190320 $D=25
M21 VDD 798 12 VDD pmos L=1.4e-07 W=1.75e-06 $X=231335 $Y=190320 $D=25
M22 14 607 13 VDD pmos L=1.4e-07 W=2.03e-06 $X=231335 $Y=215245 $D=25
M23 VDD 187 14 VDD pmos L=1.4e-07 W=2.03e-06 $X=231755 $Y=215245 $D=25
X24 VSS VDD multiplierOut[19] 46 tst_mode nor02ii $T=2960 8425 1 180 $X=20 $Y=8425
X25 VSS VDD multiplierOut[15] 52 tst_mode nor02ii $T=2960 33630 1 180 $X=20 $Y=33630
X26 VSS VDD multiplierOut[23] 47 tst_mode nor02ii $T=2960 58835 1 180 $X=20 $Y=58835
X27 VSS VDD multiplierOut[1] 59 tst_mode nor02ii $T=5410 134450 1 180 $X=2470 $Y=134450
X28 VSS VDD multiplierOut[31] 66 tst_mode nor02ii $T=5900 58835 1 180 $X=2960 $Y=58835
X29 VSS VDD multiplierOut[30] 68 tst_mode nor02ii $T=8840 58835 1 180 $X=5900 $Y=58835
X30 VSS VDD multiplierOut[13] 69 tst_mode nor02ii $T=9330 84040 1 180 $X=6390 $Y=84040
X31 VSS VDD multiplierOut[27] 71 tst_mode nor02ii $T=9820 33630 1 180 $X=6880 $Y=33630
X32 VSS VDD multiplierOut[8] 73 tst_mode nor02ii $T=12270 84040 1 180 $X=9330 $Y=84040
X33 VSS VDD multiplierOut[4] 89 tst_mode nor02ii $T=17170 33630 1 180 $X=14230 $Y=33630
X34 VSS VDD 129 120 rst nor02ii $T=26480 310885 0 0 $X=26480 $Y=310885
X35 VSS VDD multiplierOut[0] 128 tst_mode nor02ii $T=29910 58835 1 180 $X=26970 $Y=58835
X36 VSS VDD 143 136 rst nor02ii $T=29420 310885 0 0 $X=29420 $Y=310885
X37 VSS VDD multiplierOut[2] 141 tst_mode nor02ii $T=32850 58835 1 180 $X=29910 $Y=58835
X38 VSS VDD 145 135 rst nor02ii $T=29910 84040 0 0 $X=29910 $Y=84040
X39 VSS VDD multiplierOut[7] 204 tst_mode nor02ii $T=51470 8425 1 180 $X=48530 $Y=8425
X40 VSS VDD multiplierOut[3] 223 tst_mode nor02ii $T=53920 33630 1 180 $X=50980 $Y=33630
X41 VSS VDD 96 190 216 nor02ii $T=54410 184860 1 180 $X=51470 $Y=184860
X42 VSS VDD 62 221 207 nor02ii $T=54900 260475 1 180 $X=51960 $Y=260475
X43 VSS VDD 208 233 rst nor02ii $T=56860 159655 1 180 $X=53920 $Y=159655
X44 VSS VDD 214 235 rst nor02ii $T=58330 285680 1 180 $X=55390 $Y=285680
X45 VSS VDD 220 257 rst nor02ii $T=64700 210065 1 180 $X=61760 $Y=210065
X46 VSS VDD 149 229 277 nor02ii $T=70580 260475 0 0 $X=70580 $Y=260475
X47 VSS VDD 254 282 rst nor02ii $T=73520 310885 1 180 $X=70580 $Y=310885
X48 VSS VDD multiplierOut[25] 274 tst_mode nor02ii $T=76460 159655 0 0 $X=76460 $Y=159655
X49 VSS VDD 285 299 rst nor02ii $T=80380 184860 1 180 $X=77440 $Y=184860
X50 VSS VDD 292 300 rst nor02ii $T=80380 285680 1 180 $X=77440 $Y=285680
X51 VSS VDD 327 317 rst nor02ii $T=83810 109245 0 0 $X=83810 $Y=109245
X52 VSS VDD 336 324 rst nor02ii $T=86260 336090 0 0 $X=86260 $Y=336090
X53 VSS VDD multiplierOut[6] 355 tst_mode nor02ii $T=94100 134450 1 180 $X=91160 $Y=134450
X54 VSS VDD multiplierOut[14] 365 tst_mode nor02ii $T=97040 134450 1 180 $X=94100 $Y=134450
X55 VSS VDD 234 190 376 nor02ii $T=100960 184860 1 180 $X=98020 $Y=184860
X56 VSS VDD multiplierOut[26] 362 tst_mode nor02ii $T=99980 58835 0 0 $X=99980 $Y=58835
X57 VSS VDD 180 374 394 nor02ii $T=106840 134450 1 180 $X=103900 $Y=134450
X58 VSS VDD 366 405 rst nor02ii $T=108310 84040 1 180 $X=105370 $Y=84040
X59 VSS VDD multiplierOut[22] 407 tst_mode nor02ii $T=108800 58835 1 180 $X=105860 $Y=58835
X60 VSS VDD 414 378 rst nor02ii $T=107820 310885 0 0 $X=107820 $Y=310885
X61 VSS VDD 418 421 rst nor02ii $T=113210 84040 0 0 $X=113210 $Y=84040
X62 VSS VDD 419 433 rst nor02ii $T=117620 33630 1 180 $X=114680 $Y=33630
X63 VSS VDD 429 448 rst nor02ii $T=122030 58835 1 180 $X=119090 $Y=58835
X64 VSS VDD multiplierOut[21] 442 tst_mode nor02ii $T=120560 84040 0 0 $X=120560 $Y=84040
X65 VSS VDD 471 438 rst nor02ii $T=124480 159655 0 0 $X=124480 $Y=159655
X66 VSS VDD 520 508 rst nor02ii $T=139180 134450 0 0 $X=139180 $Y=134450
X67 VSS VDD 523 514 rst nor02ii $T=140160 336090 0 0 $X=140160 $Y=336090
X68 VSS VDD 536 487 rst nor02ii $T=142120 260475 0 0 $X=142120 $Y=260475
X69 VSS VDD 550 394 190 nor02ii $T=148490 210065 0 0 $X=148490 $Y=210065
X70 VSS VDD 474 545 rst nor02ii $T=152900 310885 1 180 $X=149960 $Y=310885
X71 VSS VDD 580 546 rst nor02ii $T=157800 109245 0 0 $X=157800 $Y=109245
X72 VSS VDD multiplierOut[10] 590 tst_mode nor02ii $T=163190 58835 1 180 $X=160250 $Y=58835
X73 VSS VDD multiplierOut[5] 557 tst_mode nor02ii $T=166620 336090 0 0 $X=166620 $Y=336090
X74 VSS VDD multiplierOut[12] 281 tst_mode nor02ii $T=168090 58835 0 0 $X=168090 $Y=58835
X75 VSS VDD 571 635 rst nor02ii $T=179360 8425 1 180 $X=176420 $Y=8425
X76 VSS VDD multiplierOut[29] 176 tst_mode nor02ii $T=177890 184860 0 0 $X=177890 $Y=184860
X77 VSS VDD 739 749 747 nor02ii $T=216110 285680 1 180 $X=213170 $Y=285680
X78 VSS VDD multiplierOut[28] 560 tst_mode nor02ii $T=229340 134450 0 0 $X=229340 $Y=134450
X79 VSS VDD 720 tst_mode rst nor02ii $T=290590 210065 1 180 $X=287650 $Y=210065
X80 VSS VDD multiplierOut[24] 367 tst_mode nor02ii $T=289120 310885 0 0 $X=289120 $Y=310885
X81 VSS VDD multiplierOut[11] 757 tst_mode nor02ii $T=290590 210065 0 0 $X=290590 $Y=210065
X82 VSS VDD multiplierOut[20] 501 tst_mode nor02ii $T=297940 210065 0 0 $X=297940 $Y=210065
X83 VSS VDD multiplierOut[9] 241 tst_mode nor02ii $T=300880 210065 0 0 $X=300880 $Y=210065
X84 VSS VDD multiplierOut[16] 427 tst_mode nor02ii $T=333220 210065 0 0 $X=333220 $Y=210065
X85 VSS VDD 63 tst_mode rst nor02ii $T=336650 285680 1 180 $X=333710 $Y=285680
X86 VSS VDD 48 tst_mode rst nor02ii $T=338120 33630 1 180 $X=335180 $Y=33630
X87 VSS VDD multiplierOut[17] 312 tst_mode nor02ii $T=339100 84040 0 0 $X=339100 $Y=84040
X88 VSS VDD multiplierOut[18] 681 tst_mode nor02ii $T=341060 58835 0 0 $X=341060 $Y=58835
X89 VDD VSS 104 91 50 xnor2 $T=15700 134450 0 0 $X=15700 $Y=134450
X90 VDD VSS 99 86 98 xnor2 $T=16680 260475 0 0 $X=16680 $Y=260475
X91 VDD VSS 84 117 107 xnor2 $T=26480 184860 1 180 $X=21580 $Y=184860
X92 VDD VSS 120 134 123 xnor2 $T=29910 285680 1 180 $X=25010 $Y=285680
X93 VDD VSS 92 131 126 xnor2 $T=31380 184860 1 180 $X=26480 $Y=184860
X94 VDD VSS 139 148 142 xnor2 $T=34810 285680 1 180 $X=29910 $Y=285680
X95 VDD VSS 136 165 151 xnor2 $T=36770 235270 1 180 $X=31870 $Y=235270
X96 VDD VSS 105 168 163 xnor2 $T=40200 109245 1 180 $X=35300 $Y=109245
X97 VDD VSS 135 177 161 xnor2 $T=42160 210065 1 180 $X=37260 $Y=210065
X98 VDD VSS 178 125 100 xnor2 $T=38730 134450 0 0 $X=38730 $Y=134450
X99 VDD VSS 163 66 180 xnor2 $T=40200 109245 0 0 $X=40200 $Y=109245
X100 VDD VSS 42 227 217 xnor2 $T=55880 134450 1 180 $X=50980 $Y=134450
X101 VDD VSS 219 230 226 xnor2 $T=57840 109245 1 180 $X=52940 $Y=109245
X102 VDD VSS 109 256 240 xnor2 $T=61760 159655 1 180 $X=56860 $Y=159655
X103 VDD VSS 252 236 248 xnor2 $T=58330 134450 0 0 $X=58330 $Y=134450
X104 VDD VSS 240 255 249 xnor2 $T=64210 184860 1 180 $X=59310 $Y=184860
X105 VDD VSS 257 258 265 xnor2 $T=69600 210065 1 180 $X=64700 $Y=210065
X106 VDD VSS 305 283 297 xnor2 $T=77930 8425 0 0 $X=77930 $Y=8425
X107 VDD VSS 235 319 296 xnor2 $T=83320 260475 1 180 $X=78420 $Y=260475
X108 VDD VSS 313 260 306 xnor2 $T=79400 159655 0 0 $X=79400 $Y=159655
X109 VDD VSS 333 278 252 xnor2 $T=81360 134450 0 0 $X=81360 $Y=134450
X110 VDD VSS 325 331 322 xnor2 $T=87730 210065 1 180 $X=82830 $Y=210065
X111 VDD VSS 300 332 323 xnor2 $T=87730 285680 1 180 $X=82830 $Y=285680
X112 VDD VSS 317 344 338 xnor2 $T=91160 134450 1 180 $X=86260 $Y=134450