* SPICE NETLIST
***************************************

.SUBCKT mimcap_g13 plus minus
.ENDS
***************************************
.SUBCKT spiral_inductor_lvs pos neg
.ENDS
***************************************
.SUBCKT nor02ii VSS VDD Y A1 A0
** N=7 EP=5 IP=0 FDC=6
M0 VSS A1 6 VSS nmos L=1.4e-07 W=3.5e-07 $X=805 $Y=1190 $D=19
M1 Y A0 VSS VSS nmos L=1.4e-07 W=3.5e-07 $X=1365 $Y=1190 $D=19
M2 VSS 6 Y VSS nmos L=1.4e-07 W=3.5e-07 $X=1925 $Y=1190 $D=19
M3 VDD A1 6 VDD pmos L=1.4e-07 W=7.7e-07 $X=805 $Y=6020 $D=25
M4 7 A0 VDD VDD pmos L=1.4e-07 W=1.19e-06 $X=1400 $Y=6020 $D=25
M5 Y 6 7 VDD pmos L=1.4e-07 W=1.19e-06 $X=1820 $Y=6020 $D=25
.ENDS
***************************************
.SUBCKT xor2 VSS VDD Y A1 A0
** N=10 EP=5 IP=0 FDC=12
M0 7 A0 6 VSS nmos L=1.4e-07 W=7.7e-07 $X=805 $Y=1330 $D=19
M1 VSS A1 7 VSS nmos L=1.4e-07 W=7.7e-07 $X=1225 $Y=1330 $D=19
M2 8 6 VSS VSS nmos L=1.4e-07 W=7.7e-07 $X=1785 $Y=1330 $D=19
M3 9 A1 8 VSS nmos L=1.4e-07 W=7.7e-07 $X=2345 $Y=1330 $D=19
M4 8 A0 9 VSS nmos L=1.4e-07 W=7.7e-07 $X=2905 $Y=1330 $D=19
M5 Y 9 VSS VSS nmos L=1.4e-07 W=3.5e-07 $X=4025 $Y=1330 $D=19
M6 6 A0 VDD VDD pmos L=1.4e-07 W=1.19e-06 $X=875 $Y=5880 $D=25
M7 VDD A1 6 VDD pmos L=1.4e-07 W=1.19e-06 $X=1435 $Y=5880 $D=25
M8 9 6 VDD VDD pmos L=1.4e-07 W=1.19e-06 $X=1995 $Y=5880 $D=25
M9 10 A1 9 VDD pmos L=1.4e-07 W=2.24e-06 $X=2590 $Y=4830 $D=25
M10 VDD A0 10 VDD pmos L=1.4e-07 W=2.24e-06 $X=3010 $Y=4830 $D=25
M11 Y 9 VDD VDD pmos L=1.4e-07 W=7.7e-07 $X=3605 $Y=4830 $D=25
.ENDS
***************************************
.SUBCKT ao22 VSS VDD Y A1 B0 B1 A0
** N=11 EP=7 IP=0 FDC=10
M0 8 A1 VSS VSS nmos L=1.4e-07 W=7.7e-07 $X=945 $Y=1190 $D=19
M1 9 A0 8 VSS nmos L=1.4e-07 W=7.7e-07 $X=1365 $Y=1190 $D=19
M2 10 B0 9 VSS nmos L=1.4e-07 W=7.7e-07 $X=1925 $Y=1190 $D=19
M3 VSS B1 10 VSS nmos L=1.4e-07 W=7.7e-07 $X=2345 $Y=1190 $D=19
M4 Y 9 VSS VSS nmos L=1.4e-07 W=3.5e-07 $X=2940 $Y=1610 $D=19
M5 11 A1 VDD VDD pmos L=1.4e-07 W=1.19e-06 $X=805 $Y=6020 $D=25
M6 9 B0 11 VDD pmos L=1.4e-07 W=1.19e-06 $X=1365 $Y=6020 $D=25
M7 11 B1 9 VDD pmos L=1.4e-07 W=1.19e-06 $X=1925 $Y=6020 $D=25
M8 VDD A0 11 VDD pmos L=1.4e-07 W=1.19e-06 $X=2485 $Y=6020 $D=25
M9 Y 9 VDD VDD pmos L=1.4e-07 W=7.7e-07 $X=3080 $Y=6020 $D=25
.ENDS
***************************************
.SUBCKT dff VSS VDD QB Q D CLK
** N=20 EP=6 IP=0 FDC=28
M0 VSS 9 7 VSS nmos L=1.4e-07 W=3.5e-07 $X=805 $Y=2310 $D=19
M1 8 12 VSS VSS nmos L=1.4e-07 W=3.5e-07 $X=1365 $Y=2310 $D=19
M2 9 7 8 VSS nmos L=1.4e-07 W=3.5e-07 $X=1785 $Y=2310 $D=19
M3 10 D 9 VSS nmos L=1.4e-07 W=1.19e-06 $X=2380 $Y=1575 $D=19
M4 VSS 11 10 VSS nmos L=1.4e-07 W=1.19e-06 $X=2800 $Y=1575 $D=19
M5 VSS CLK 11 VSS nmos L=1.4e-07 W=7.7e-07 $X=3990 $Y=1645 $D=19
M6 12 11 VSS VSS nmos L=1.4e-07 W=7.7e-07 $X=4550 $Y=1645 $D=19
M7 13 12 VSS VSS nmos L=1.4e-07 W=1.19e-06 $X=5670 $Y=1960 $D=19
M8 14 9 13 VSS nmos L=1.4e-07 W=1.19e-06 $X=6090 $Y=1960 $D=19
M9 15 11 14 VSS nmos L=1.4e-07 W=3.5e-07 $X=6685 $Y=2660 $D=19
M10 VSS 16 15 VSS nmos L=1.4e-07 W=3.5e-07 $X=7105 $Y=2660 $D=19
M11 16 14 VSS VSS nmos L=1.4e-07 W=3.5e-07 $X=7665 $Y=2660 $D=19
M12 VSS 14 QB VSS nmos L=1.4e-07 W=7.7e-07 $X=8715 $Y=1330 $D=19
M13 Q QB VSS VSS nmos L=1.4e-07 W=7.7e-07 $X=9275 $Y=1330 $D=19
M14 VDD 9 7 VDD pmos L=1.4e-07 W=3.5e-07 $X=805 $Y=4655 $D=25
M15 17 11 VDD VDD pmos L=1.4e-07 W=3.5e-07 $X=1365 $Y=4655 $D=25
M16 9 7 17 VDD pmos L=1.4e-07 W=3.5e-07 $X=1785 $Y=4655 $D=25
M17 18 D 9 VDD pmos L=1.4e-07 W=2.24e-06 $X=2380 $Y=4235 $D=25
M18 VDD 12 18 VDD pmos L=1.4e-07 W=2.24e-06 $X=2800 $Y=4235 $D=25
M19 VDD CLK 11 VDD pmos L=1.4e-07 W=1.54e-06 $X=3920 $Y=4935 $D=25
M20 12 11 VDD VDD pmos L=1.4e-07 W=1.54e-06 $X=4480 $Y=4935 $D=25
M21 19 11 VDD VDD pmos L=1.4e-07 W=2.24e-06 $X=5600 $Y=4235 $D=25
M22 14 9 19 VDD pmos L=1.4e-07 W=2.24e-06 $X=6020 $Y=4235 $D=25
M23 20 12 14 VDD pmos L=1.4e-07 W=3.5e-07 $X=6615 $Y=5285 $D=25
M24 VDD 16 20 VDD pmos L=1.4e-07 W=3.5e-07 $X=7035 $Y=5285 $D=25
M25 16 14 VDD VDD pmos L=1.4e-07 W=3.5e-07 $X=7595 $Y=5285 $D=25
M26 VDD 14 QB VDD pmos L=1.4e-07 W=1.54e-06 $X=8715 $Y=5530 $D=25
M27 Q QB VDD VDD pmos L=1.4e-07 W=1.54e-06 $X=9275 $Y=5530 $D=25
.ENDS
***************************************
.SUBCKT dffs VDD VSS QB Q D S CLK
** N=23 EP=7 IP=0 FDC=34
M0 8 14 VSS VSS nmos L=1.4e-07 W=1.19e-06 $X=805 $Y=1470 $D=19
M1 9 D 8 VSS nmos L=1.4e-07 W=1.19e-06 $X=1225 $Y=1470 $D=19
M2 10 12 9 VSS nmos L=1.4e-07 W=3.5e-07 $X=1820 $Y=2310 $D=19
M3 VSS 15 10 VSS nmos L=1.4e-07 W=3.5e-07 $X=2240 $Y=2310 $D=19
M4 11 9 VSS VSS nmos L=1.4e-07 W=7.7e-07 $X=2835 $Y=1890 $D=19
M5 12 S 11 VSS nmos L=1.4e-07 W=7.7e-07 $X=3255 $Y=1890 $D=19
M6 13 12 VSS VSS nmos L=1.4e-07 W=7.7e-07 $X=4445 $Y=2310 $D=19
M7 VSS CLK 14 VSS nmos L=1.4e-07 W=7.7e-07 $X=5635 $Y=2310 $D=19
M8 15 14 VSS VSS nmos L=1.4e-07 W=7.7e-07 $X=6195 $Y=2310 $D=19
M9 17 14 16 VSS nmos L=1.4e-07 W=3.5e-07 $X=7700 $Y=2520 $D=19
M10 18 13 17 VSS nmos L=1.4e-07 W=1.19e-06 $X=8295 $Y=1680 $D=19
M11 VSS 15 18 VSS nmos L=1.4e-07 W=1.19e-06 $X=8715 $Y=1680 $D=19
M12 19 20 VSS VSS nmos L=1.4e-07 W=3.5e-07 $X=9310 $Y=2520 $D=19
M13 16 S 19 VSS nmos L=1.4e-07 W=3.5e-07 $X=9730 $Y=2520 $D=19
M14 20 17 VSS VSS nmos L=1.4e-07 W=3.5e-07 $X=10465 $Y=1330 $D=19
M15 VSS 17 QB VSS nmos L=1.4e-07 W=7.7e-07 $X=11655 $Y=1330 $D=19
M16 Q QB VSS VSS nmos L=1.4e-07 W=7.7e-07 $X=12215 $Y=1330 $D=19
M17 21 15 VDD VDD pmos L=1.4e-07 W=2.24e-06 $X=805 $Y=4830 $D=25
M18 9 D 21 VDD pmos L=1.4e-07 W=2.24e-06 $X=1225 $Y=4830 $D=25
M19 22 12 9 VDD pmos L=1.4e-07 W=3.5e-07 $X=1820 $Y=6335 $D=25
M20 VDD 14 22 VDD pmos L=1.4e-07 W=3.5e-07 $X=2240 $Y=6335 $D=25
M21 12 9 VDD VDD pmos L=1.4e-07 W=1.05e-06 $X=2835 $Y=5635 $D=25
M22 VDD S 12 VDD pmos L=1.4e-07 W=1.05e-06 $X=3395 $Y=5635 $D=25
M23 13 12 VDD VDD pmos L=1.4e-07 W=1.54e-06 $X=3990 $Y=5145 $D=25
M24 VDD CLK 14 VDD pmos L=1.4e-07 W=1.54e-06 $X=5635 $Y=5180 $D=25
M25 15 14 VDD VDD pmos L=1.4e-07 W=1.54e-06 $X=6195 $Y=5180 $D=25
M26 17 15 16 VDD pmos L=1.4e-07 W=3.5e-07 $X=7700 $Y=4830 $D=25
M27 23 13 17 VDD pmos L=1.4e-07 W=2.24e-06 $X=8295 $Y=4830 $D=25
M28 VDD 14 23 VDD pmos L=1.4e-07 W=2.24e-06 $X=8715 $Y=4830 $D=25
M29 16 20 VDD VDD pmos L=1.4e-07 W=3.5e-07 $X=9310 $Y=5530 $D=25
M30 VDD S 16 VDD pmos L=1.4e-07 W=3.5e-07 $X=9870 $Y=5530 $D=25
M31 20 17 VDD VDD pmos L=1.4e-07 W=3.5e-07 $X=10430 $Y=5530 $D=25
M32 VDD 17 QB VDD pmos L=1.4e-07 W=1.54e-06 $X=11655 $Y=5530 $D=25
M33 Q QB VDD VDD pmos L=1.4e-07 W=1.54e-06 $X=12215 $Y=5530 $D=25
.ENDS
***************************************
.SUBCKT mux21 VSS VDD Y S0 A1 A0
** N=12 EP=6 IP=0 FDC=12
M0 VSS S0 7 VSS nmos L=1.4e-07 W=3.5e-07 $X=850 $Y=1610 $D=19
M1 8 S0 VSS VSS nmos L=1.4e-07 W=7.7e-07 $X=1445 $Y=1190 $D=19
M2 9 A1 8 VSS nmos L=1.4e-07 W=7.7e-07 $X=1865 $Y=1190 $D=19
M3 10 A0 9 VSS nmos L=1.4e-07 W=7.7e-07 $X=2425 $Y=1190 $D=19
M4 VSS 7 10 VSS nmos L=1.4e-07 W=7.7e-07 $X=2845 $Y=1190 $D=19
M5 Y 9 VSS VSS nmos L=1.4e-07 W=7.7e-07 $X=3405 $Y=1190 $D=19
M6 VDD S0 7 VDD pmos L=1.4e-07 W=7.7e-07 $X=850 $Y=5670 $D=25
M7 11 S0 VDD VDD pmos L=1.4e-07 W=1.54e-06 $X=1445 $Y=5670 $D=25
M8 9 A0 11 VDD pmos L=1.4e-07 W=1.54e-06 $X=1865 $Y=5670 $D=25
M9 12 A1 9 VDD pmos L=1.4e-07 W=1.54e-06 $X=2425 $Y=5670 $D=25
M10 VDD 7 12 VDD pmos L=1.4e-07 W=1.54e-06 $X=2845 $Y=5670 $D=25
M11 Y 9 VDD VDD pmos L=1.4e-07 W=1.54e-06 $X=3405 $Y=5670 $D=25
.ENDS
***************************************
.SUBCKT nor04 VSS VDD Y A0 A1 A2 A3
** N=10 EP=7 IP=0 FDC=8
M0 Y A0 VSS VSS nmos L=1.4e-07 W=7.7e-07 $X=1095 $Y=1190 $D=19
M1 VSS A1 Y VSS nmos L=1.4e-07 W=7.7e-07 $X=1655 $Y=1190 $D=19
M2 Y A2 VSS VSS nmos L=1.4e-07 W=7.7e-07 $X=2215 $Y=1190 $D=19
M3 VSS A3 Y VSS nmos L=1.4e-07 W=7.7e-07 $X=2775 $Y=1190 $D=19
M4 8 A0 VDD VDD pmos L=1.4e-07 W=2.24e-06 $X=1095 $Y=4970 $D=25
M5 9 A1 8 VDD pmos L=1.4e-07 W=2.24e-06 $X=1515 $Y=4970 $D=25
M6 10 A2 9 VDD pmos L=1.4e-07 W=2.24e-06 $X=1935 $Y=4970 $D=25
M7 Y A3 10 VDD pmos L=1.4e-07 W=2.24e-06 $X=2355 $Y=4970 $D=25
.ENDS
***************************************
.SUBCKT xnor2 VDD VSS Y A0 A1
** N=9 EP=5 IP=0 FDC=10
M0 7 A0 6 VSS nmos L=1.4e-07 W=7.7e-07 $X=805 $Y=1610 $D=19
M1 VSS A1 7 VSS nmos L=1.4e-07 W=7.7e-07 $X=1225 $Y=1610 $D=19
M2 Y A1 8 VSS nmos L=1.4e-07 W=7.7e-07 $X=2345 $Y=1610 $D=19
M3 8 A0 Y VSS nmos L=1.4e-07 W=7.7e-07 $X=2905 $Y=1610 $D=19
M4 VSS 6 8 VSS nmos L=1.4e-07 W=7.7e-07 $X=3465 $Y=1610 $D=19
M5 6 A0 VDD VDD pmos L=1.4e-07 W=1.19e-06 $X=1175 $Y=4585 $D=25
M6 VDD A1 6 VDD pmos L=1.4e-07 W=1.19e-06 $X=1735 $Y=4585 $D=25
M7 9 A0 VDD VDD pmos L=1.4e-07 W=2.24e-06 $X=2365 $Y=4620 $D=25
M8 Y A1 9 VDD pmos L=1.4e-07 W=2.24e-06 $X=2855 $Y=4585 $D=25
M9 VDD 6 Y VDD pmos L=1.4e-07 W=1.19e-06 $X=3450 $Y=4620 $D=25
.ENDS
***************************************
.SUBCKT ICV_1 1 2 3 4 5 6 7 8 9
** N=9 EP=9 IP=11 FDC=22
X0 1 2 6 3 4 5 mux21 $T=0 0 0 0 $X=0 $Y=0
X1 2 1 9 7 8 xnor2 $T=0 0 1 180 $X=-4900 $Y=0
.ENDS
***************************************
.SUBCKT nor02 VSS VDD Y A0 A1
** N=6 EP=5 IP=0 FDC=4
M0 Y A0 VSS VSS nmos L=1.4e-07 W=3.5e-07 $X=875 $Y=1190 $D=19
M1 VSS A1 Y VSS nmos L=1.4e-07 W=3.5e-07 $X=1435 $Y=1190 $D=19
M2 6 A0 VDD VDD pmos L=1.4e-07 W=1.19e-06 $X=1015 $Y=6020 $D=25
M3 Y A1 6 VDD pmos L=1.4e-07 W=1.19e-06 $X=1435 $Y=6020 $D=25
.ENDS
***************************************
.SUBCKT oai22 VSS Y VDD B0 B1 A1 A0
** N=10 EP=7 IP=0 FDC=8
M0 VSS B0 8 VSS nmos L=1.4e-07 W=7.7e-07 $X=1295 $Y=1225 $D=19
M1 8 B1 VSS VSS nmos L=1.4e-07 W=7.7e-07 $X=1855 $Y=1225 $D=19
M2 Y A1 8 VSS nmos L=1.4e-07 W=7.7e-07 $X=2415 $Y=1225 $D=19
M3 8 A0 Y VSS nmos L=1.4e-07 W=7.7e-07 $X=2975 $Y=1225 $D=19
M4 9 B0 VDD VDD pmos L=1.4e-07 W=2.03e-06 $X=1435 $Y=5265 $D=25
M5 Y B1 9 VDD pmos L=1.4e-07 W=2.03e-06 $X=1855 $Y=5265 $D=25
M6 10 A1 Y VDD pmos L=1.4e-07 W=2.03e-06 $X=2415 $Y=5265 $D=25
M7 VDD A0 10 VDD pmos L=1.4e-07 W=2.03e-06 $X=2835 $Y=5265 $D=25
.ENDS
***************************************
.SUBCKT nand02 VSS Y VDD A1 A0
** N=6 EP=5 IP=0 FDC=4
M0 6 A1 VSS VSS nmos L=1.4e-07 W=7.7e-07 $X=875 $Y=1190 $D=19
M1 Y A0 6 VSS nmos L=1.4e-07 W=7.7e-07 $X=1295 $Y=1190 $D=19
M2 Y A1 VDD VDD pmos L=1.4e-07 W=1.05e-06 $X=875 $Y=6160 $D=25
M3 VDD A0 Y VDD pmos L=1.4e-07 W=1.05e-06 $X=1435 $Y=6160 $D=25
.ENDS
***************************************
.SUBCKT ICV_2 1 2 3 4 5 6 7 8
** N=8 EP=8 IP=10 FDC=14
X0 2 1 5 3 4 xnor2 $T=2450 0 0 0 $X=2450 $Y=0
X1 1 8 2 6 7 nand02 $T=0 0 0 0 $X=0 $Y=0
.ENDS
***************************************
.SUBCKT inv01 VSS VDD Y A
** N=4 EP=4 IP=0 FDC=2
M0 Y A VSS VSS nmos L=1.4e-07 W=3.5e-07 $X=910 $Y=1820 $D=19
M1 Y A VDD VDD pmos L=1.4e-07 W=7.7e-07 $X=910 $Y=5600 $D=25
.ENDS
***************************************
.SUBCKT ICV_3 1 2 3 4 5 6 7 8 9
** N=9 EP=9 IP=11 FDC=22
X0 1 2 6 3 4 5 mux21 $T=0 0 0 0 $X=0 $Y=0
X1 2 1 9 7 8 xnor2 $T=-4900 0 0 0 $X=-4900 $Y=0
.ENDS
***************************************
.SUBCKT ICV_4 1 2 3 4 5 6 7 8 9 10
** N=10 EP=10 IP=12 FDC=40
X0 1 2 5 6 3 4 dff $T=0 0 0 0 $X=0 $Y=0
X1 1 2 10 7 8 9 mux21 $T=14700 0 1 180 $X=10290 $Y=0
.ENDS
***************************************
.SUBCKT dffr VDD VSS QB Q D R CLK
** N=23 EP=7 IP=0 FDC=34
M0 8 13 VSS VSS nmos L=1.4e-07 W=1.19e-06 $X=705 $Y=1470 $D=19
M1 9 D 8 VSS nmos L=1.4e-07 W=1.19e-06 $X=1125 $Y=1470 $D=19
M2 10 11 9 VSS nmos L=1.4e-07 W=3.5e-07 $X=1720 $Y=2310 $D=19
M3 VSS 14 10 VSS nmos L=1.4e-07 W=3.5e-07 $X=2140 $Y=2310 $D=19
M4 11 9 VSS VSS nmos L=1.4e-07 W=7.7e-07 $X=2735 $Y=1890 $D=19
M5 VSS R 11 VSS nmos L=1.4e-07 W=7.7e-07 $X=3295 $Y=1890 $D=19
M6 12 11 VSS VSS nmos L=1.4e-07 W=3.5e-07 $X=3890 $Y=2310 $D=19
M7 VSS CLK 13 VSS nmos L=1.4e-07 W=7.7e-07 $X=5395 $Y=2310 $D=19
M8 14 13 VSS VSS nmos L=1.4e-07 W=7.7e-07 $X=5955 $Y=2310 $D=19
M9 16 13 15 VSS nmos L=1.4e-07 W=3.5e-07 $X=7460 $Y=2625 $D=19
M10 17 12 16 VSS nmos L=1.4e-07 W=1.19e-06 $X=8055 $Y=1785 $D=19
M11 VSS 14 17 VSS nmos L=1.4e-07 W=1.19e-06 $X=8475 $Y=1785 $D=19
M12 15 18 VSS VSS nmos L=1.4e-07 W=3.5e-07 $X=9070 $Y=1785 $D=19
M13 VSS R 15 VSS nmos L=1.4e-07 W=3.5e-07 $X=9630 $Y=1785 $D=19
M14 18 16 VSS VSS nmos L=1.4e-07 W=3.5e-07 $X=10190 $Y=1785 $D=19
M15 VSS 16 QB VSS nmos L=1.4e-07 W=7.7e-07 $X=11345 $Y=1330 $D=19
M16 Q QB VSS VSS nmos L=1.4e-07 W=7.7e-07 $X=11905 $Y=1330 $D=19
M17 19 14 VDD VDD pmos L=1.4e-07 W=2.24e-06 $X=705 $Y=4830 $D=25
M18 9 D 19 VDD pmos L=1.4e-07 W=2.24e-06 $X=1125 $Y=4830 $D=25
M19 20 11 9 VDD pmos L=1.4e-07 W=3.5e-07 $X=1720 $Y=6335 $D=25
M20 VDD 13 20 VDD pmos L=1.4e-07 W=3.5e-07 $X=2140 $Y=6335 $D=25
M21 21 9 VDD VDD pmos L=1.4e-07 W=1.05e-06 $X=2735 $Y=5635 $D=25
M22 11 R 21 VDD pmos L=1.4e-07 W=1.05e-06 $X=3155 $Y=5635 $D=25
M23 12 11 VDD VDD pmos L=1.4e-07 W=7.7e-07 $X=4275 $Y=5915 $D=25
M24 VDD CLK 13 VDD pmos L=1.4e-07 W=1.54e-06 $X=5395 $Y=5180 $D=25
M25 14 13 VDD VDD pmos L=1.4e-07 W=1.54e-06 $X=5955 $Y=5180 $D=25
M26 16 14 15 VDD pmos L=1.4e-07 W=3.5e-07 $X=7460 $Y=4830 $D=25
M27 22 12 16 VDD pmos L=1.4e-07 W=2.24e-06 $X=8055 $Y=4830 $D=25
M28 VDD 13 22 VDD pmos L=1.4e-07 W=2.24e-06 $X=8475 $Y=4830 $D=25
M29 23 18 VDD VDD pmos L=1.4e-07 W=3.5e-07 $X=9070 $Y=4830 $D=25
M30 15 R 23 VDD pmos L=1.4e-07 W=3.5e-07 $X=9490 $Y=4830 $D=25
M31 18 16 VDD VDD pmos L=1.4e-07 W=7.7e-07 $X=10190 $Y=6300 $D=25
M32 VDD 16 QB VDD pmos L=1.4e-07 W=1.54e-06 $X=11345 $Y=5530 $D=25
M33 Q QB VDD VDD pmos L=1.4e-07 W=1.54e-06 $X=11905 $Y=5530 $D=25
.ENDS
***************************************
.SUBCKT aoi22 VSS VDD Y A1 A0 B0 B1
** N=10 EP=7 IP=0 FDC=8
M0 8 A1 VSS VSS nmos L=1.4e-07 W=7.7e-07 $X=945 $Y=1190 $D=19
M1 Y A0 8 VSS nmos L=1.4e-07 W=7.7e-07 $X=1365 $Y=1190 $D=19
M2 9 B0 Y VSS nmos L=1.4e-07 W=7.7e-07 $X=1925 $Y=1190 $D=19
M3 VSS B1 9 VSS nmos L=1.4e-07 W=7.7e-07 $X=2345 $Y=1190 $D=19
M4 VDD A1 10 VDD pmos L=1.4e-07 W=1.19e-06 $X=805 $Y=6020 $D=25
M5 10 A0 VDD VDD pmos L=1.4e-07 W=1.19e-06 $X=1365 $Y=6020 $D=25
M6 Y B0 10 VDD pmos L=1.4e-07 W=1.19e-06 $X=1925 $Y=6020 $D=25
M7 10 B1 Y VDD pmos L=1.4e-07 W=1.19e-06 $X=2485 $Y=6020 $D=25
.ENDS
***************************************
.SUBCKT nand04 VSS Y VDD A3 A2 A1 A0
** N=10 EP=7 IP=0 FDC=8
M0 8 A3 VSS VSS nmos L=1.4e-07 W=1.61e-06 $X=1305 $Y=1190 $D=19
M1 9 A2 8 VSS nmos L=1.4e-07 W=1.61e-06 $X=1725 $Y=1190 $D=19
M2 10 A1 9 VSS nmos L=1.4e-07 W=1.61e-06 $X=2145 $Y=1190 $D=19
M3 Y A0 10 VSS nmos L=1.4e-07 W=1.61e-06 $X=2565 $Y=1190 $D=19
M4 Y A3 VDD VDD pmos L=1.4e-07 W=1.68e-06 $X=1095 $Y=5530 $D=25
M5 VDD A2 Y VDD pmos L=1.4e-07 W=1.68e-06 $X=1655 $Y=5530 $D=25
M6 Y A1 VDD VDD pmos L=1.4e-07 W=1.68e-06 $X=2215 $Y=5530 $D=25
M7 VDD A0 Y VDD pmos L=1.4e-07 W=1.68e-06 $X=2775 $Y=5530 $D=25
.ENDS
***************************************
.SUBCKT ICV_5 1 2 3 4 5 6 7 8 9 10
** N=11 EP=10 IP=13 FDC=46
X0 2 1 11 6 3 4 5 dffs $T=4410 0 0 0 $X=4410 $Y=0
X1 1 2 10 7 8 9 mux21 $T=0 0 0 0 $X=0 $Y=0
.ENDS
***************************************
.SUBCKT nand03 VSS Y VDD A2 A1 A0
** N=8 EP=6 IP=0 FDC=6
M0 7 A2 VSS VSS nmos L=1.4e-07 W=1.19e-06 $X=915 $Y=1190 $D=19
M1 8 A1 7 VSS nmos L=1.4e-07 W=1.19e-06 $X=1335 $Y=1190 $D=19
M2 Y A0 8 VSS nmos L=1.4e-07 W=1.19e-06 $X=1755 $Y=1190 $D=19
M3 VDD A2 Y VDD pmos L=1.4e-07 W=1.26e-06 $X=775 $Y=5950 $D=25
M4 Y A1 VDD VDD pmos L=1.4e-07 W=1.26e-06 $X=1335 $Y=5950 $D=25
M5 VDD A0 Y VDD pmos L=1.4e-07 W=1.26e-06 $X=1895 $Y=5950 $D=25
.ENDS
***************************************
.SUBCKT nor03 Y VDD VSS A0 A1 A2
** N=8 EP=6 IP=0 FDC=6
M0 VSS A0 Y VSS nmos L=1.4e-07 W=4.2e-07 $X=875 $Y=1190 $D=19
M1 Y A1 VSS VSS nmos L=1.4e-07 W=4.2e-07 $X=1435 $Y=1190 $D=19
M2 VSS A2 Y VSS nmos L=1.4e-07 W=4.2e-07 $X=1995 $Y=1190 $D=19
M3 7 A0 VDD VDD pmos L=1.4e-07 W=1.68e-06 $X=875 $Y=5530 $D=25
M4 8 A1 7 VDD pmos L=1.4e-07 W=1.68e-06 $X=1295 $Y=5530 $D=25
M5 Y A2 8 VDD pmos L=1.4e-07 W=1.68e-06 $X=1715 $Y=5530 $D=25
.ENDS
***************************************
.SUBCKT inv02 VSS VDD Y A
** N=4 EP=4 IP=0 FDC=2
M0 Y A VSS VSS nmos L=1.4e-07 W=7.7e-07 $X=805 $Y=1750 $D=19
M1 Y A VDD VDD pmos L=1.4e-07 W=1.54e-06 $X=805 $Y=4970 $D=25
.ENDS
***************************************
.SUBCKT ICV_6 1 2 3 4 5 6 7 8 9
** N=9 EP=9 IP=11 FDC=22
X0 1 2 6 3 4 5 mux21 $T=4900 0 0 0 $X=4900 $Y=0
X1 2 1 9 7 8 xnor2 $T=0 0 0 0 $X=0 $Y=0
.ENDS
***************************************
.SUBCKT ICV_7 1 2 3 4 5 6 7
** N=7 EP=7 IP=11 FDC=22
X0 1 2 6 3 4 5 mux21 $T=0 0 0 0 $X=0 $Y=0
X1 2 1 7 5 3 xnor2 $T=4410 0 0 0 $X=4410 $Y=0
.ENDS
***************************************
.SUBCKT and02 VSS VDD Y A0 A1
** N=7 EP=5 IP=0 FDC=6
M0 7 A0 6 VSS nmos L=1.4e-07 W=7.7e-07 $X=945 $Y=1190 $D=19
M1 VSS A1 7 VSS nmos L=1.4e-07 W=7.7e-07 $X=1365 $Y=1190 $D=19
M2 Y 6 VSS VSS nmos L=1.4e-07 W=3.5e-07 $X=1960 $Y=1610 $D=19
M3 6 A0 VDD VDD pmos L=1.4e-07 W=1.05e-06 $X=805 $Y=6160 $D=25
M4 VDD A1 6 VDD pmos L=1.4e-07 W=1.05e-06 $X=1365 $Y=6160 $D=25
M5 Y 6 VDD VDD pmos L=1.4e-07 W=7.7e-07 $X=1960 $Y=6160 $D=25
.ENDS
***************************************
.SUBCKT aoi21 VSS VDD Y A1 A0 B0
** N=8 EP=6 IP=0 FDC=6
M0 7 A1 VSS VSS nmos L=1.4e-07 W=7.7e-07 $X=805 $Y=1170 $D=19
M1 Y A0 7 VSS nmos L=1.4e-07 W=7.7e-07 $X=1225 $Y=1170 $D=19
M2 VSS B0 Y VSS nmos L=1.4e-07 W=3.5e-07 $X=1820 $Y=1590 $D=19
M3 VDD A1 8 VDD pmos L=1.4e-07 W=1.19e-06 $X=805 $Y=6020 $D=25
M4 8 A0 VDD VDD pmos L=1.4e-07 W=1.19e-06 $X=1365 $Y=6020 $D=25
M5 Y B0 8 VDD pmos L=1.4e-07 W=1.19e-06 $X=1925 $Y=6020 $D=25
.ENDS
***************************************
.SUBCKT or02 VSS VDD Y A1 A0
** N=7 EP=5 IP=0 FDC=6
M0 6 A1 VSS VSS nmos L=1.4e-07 W=3.5e-07 $X=805 $Y=1330 $D=19
M1 VSS A0 6 VSS nmos L=1.4e-07 W=3.5e-07 $X=1365 $Y=1330 $D=19
M2 Y 6 VSS VSS nmos L=1.4e-07 W=3.5e-07 $X=1925 $Y=1330 $D=19
M3 7 A1 6 VDD pmos L=1.4e-07 W=1.19e-06 $X=910 $Y=5880 $D=25
M4 VDD A0 7 VDD pmos L=1.4e-07 W=1.19e-06 $X=1330 $Y=5880 $D=25
M5 Y 6 VDD VDD pmos L=1.4e-07 W=7.7e-07 $X=1925 $Y=5880 $D=25
.ENDS
***************************************
.SUBCKT aoi32 VSS VDD Y A2 A1 A0 B0 B1
** N=12 EP=8 IP=0 FDC=10
M0 9 A2 VSS VSS nmos L=1.4e-07 W=1.19e-06 $X=805 $Y=1190 $D=19
M1 10 A1 9 VSS nmos L=1.4e-07 W=1.19e-06 $X=1225 $Y=1190 $D=19
M2 Y A0 10 VSS nmos L=1.4e-07 W=1.19e-06 $X=1645 $Y=1190 $D=19
M3 11 B0 Y VSS nmos L=1.4e-07 W=7.7e-07 $X=2240 $Y=1610 $D=19
M4 VSS B1 11 VSS nmos L=1.4e-07 W=7.7e-07 $X=2660 $Y=1610 $D=19
M5 12 A2 VDD VDD pmos L=1.4e-07 W=1.19e-06 $X=805 $Y=6020 $D=25
M6 VDD A1 12 VDD pmos L=1.4e-07 W=1.19e-06 $X=1365 $Y=6020 $D=25
M7 12 A0 VDD VDD pmos L=1.4e-07 W=1.19e-06 $X=1925 $Y=6020 $D=25
M8 Y B0 12 VDD pmos L=1.4e-07 W=1.19e-06 $X=2485 $Y=6020 $D=25
M9 12 B1 Y VDD pmos L=1.4e-07 W=1.19e-06 $X=3045 $Y=6020 $D=25
.ENDS
***************************************
.SUBCKT MAC_BIST VSS VDD multiplierOut[0] A[11] multiplierOut[3] tst_mode A[9] B[3] rst clk multiplierOut[8] multiplierOut[14] A[8] A[15] multiplierOut[9] multiplierOut[16] multiplierOut[15] A[13] A[14] multiplierOut[2]
+ multiplierOut[30] multiplierOut[6] multiplierOut[28] multiplierOut[26] multiplierOut[29] multiplierOut[27] A[10] multiplierOut[5] multiplierOut[4] B[7] B[1] multiplierOut[12] tst_output_flag B[5] multiplierOut[13] B[15] B[14] A[5] A[1] multiplierOut[31]
+ B[12] B[13] multiplierOut[1] multiplierOut[22] B[11] B[10] B[2] multiplierOut[10] multiplierOut[7] B[4] multiplierOut[21] B[0] multiplierOut[18] A[12] multiplierOut[11] A[2] A[3] A[7] multiplierOut[25] A[4]
+ multiplierOut[23] B[9] B[8] multiplierOut[19] A[6] multiplierOut[24] B[6] multiplierOut[17] A[0] multiplierOut[20]
** N=1220 EP=70 IP=4971 FDC=11306
M0 VSS 6 1 VSS nmos L=1.4e-07 W=3.5e-07 $X=121400 $Y=61285 $D=19
M1 3 285 VSS VSS nmos L=1.4e-07 W=1.61e-06 $X=121995 $Y=60025 $D=19
M2 4 233 3 VSS nmos L=1.4e-07 W=1.61e-06 $X=122415 $Y=60025 $D=19
M3 5 416 4 VSS nmos L=1.4e-07 W=1.61e-06 $X=122835 $Y=60025 $D=19
M4 6 423 5 VSS nmos L=1.4e-07 W=1.61e-06 $X=123255 $Y=60025 $D=19
M5 7 35 VSS VSS nmos L=1.4e-07 W=7.7e-07 $X=123815 $Y=261710 $D=19
M6 9 420 7 VSS nmos L=1.4e-07 W=7.7e-07 $X=124375 $Y=261710 $D=19
M7 7 rst 9 VSS nmos L=1.4e-07 W=7.7e-07 $X=124935 $Y=261710 $D=19
M8 10 315 VSS VSS nmos L=1.4e-07 W=1.33e-06 $X=157060 $Y=186050 $D=19
M9 11 213 10 VSS nmos L=1.4e-07 W=1.33e-06 $X=157480 $Y=186050 $D=19
M10 12 530 11 VSS nmos L=1.4e-07 W=1.33e-06 $X=157900 $Y=186050 $D=19
M11 13 532 12 VSS nmos L=1.4e-07 W=7.7e-07 $X=158495 $Y=186610 $D=19
M12 VSS 326 13 VSS nmos L=1.4e-07 W=7.7e-07 $X=158915 $Y=186610 $D=19
M13 12 461 VSS VSS nmos L=1.4e-07 W=3.5e-07 $X=159510 $Y=187030 $D=19
M14 15 688 14 VSS nmos L=1.4e-07 W=1.19e-06 $X=251355 $Y=286870 $D=19
M15 16 825 15 VSS nmos L=1.4e-07 W=1.19e-06 $X=251775 $Y=286870 $D=19
M16 VSS 826 16 VSS nmos L=1.4e-07 W=1.19e-06 $X=252195 $Y=286870 $D=19
M17 17 14 VSS VSS nmos L=1.4e-07 W=3.5e-07 $X=252790 $Y=287710 $D=19
M18 VDD 6 1 VDD pmos L=1.4e-07 W=7.7e-07 $X=121260 $Y=64295 $D=25
M19 6 285 VDD VDD pmos L=1.4e-07 W=1.75e-06 $X=121855 $Y=64295 $D=25
M20 VDD 233 6 VDD pmos L=1.4e-07 W=1.75e-06 $X=122415 $Y=64295 $D=25
M21 6 416 VDD VDD pmos L=1.4e-07 W=1.75e-06 $X=122975 $Y=64295 $D=25
M22 VDD 423 6 VDD pmos L=1.4e-07 W=1.75e-06 $X=123535 $Y=64295 $D=25
M23 9 35 VDD VDD pmos L=1.4e-07 W=1.05e-06 $X=123920 $Y=265655 $D=25
M24 18 420 9 VDD pmos L=1.4e-07 W=2.03e-06 $X=124515 $Y=265655 $D=25
M25 VDD rst 18 VDD pmos L=1.4e-07 W=2.03e-06 $X=124935 $Y=265655 $D=25
M26 19 315 VDD VDD pmos L=1.4e-07 W=1.82e-06 $X=156675 $Y=190250 $D=25
M27 VDD 213 19 VDD pmos L=1.4e-07 W=1.82e-06 $X=157235 $Y=190250 $D=25
M28 19 530 VDD VDD pmos L=1.4e-07 W=1.82e-06 $X=157795 $Y=190250 $D=25
M29 20 532 19 VDD pmos L=1.4e-07 W=1.61e-06 $X=158390 $Y=190250 $D=25
M30 19 326 20 VDD pmos L=1.4e-07 W=1.61e-06 $X=158950 $Y=190250 $D=25
M31 12 461 20 VDD pmos L=1.4e-07 W=1.61e-06 $X=160070 $Y=190265 $D=25
M32 VDD 688 14 VDD pmos L=1.4e-07 W=1.4e-06 $X=251215 $Y=291490 $D=25
M33 14 825 VDD VDD pmos L=1.4e-07 W=1.4e-06 $X=251775 $Y=291490 $D=25
M34 VDD 826 14 VDD pmos L=1.4e-07 W=1.4e-06 $X=252335 $Y=291490 $D=25
M35 17 14 VDD VDD pmos L=1.4e-07 W=7.7e-07 $X=252930 $Y=291490 $D=25
X36 VSS VDD multiplierOut[3] 34 tst_mode nor02ii $T=2960 8425 1 180 $X=20 $Y=8425
X37 VSS VDD multiplierOut[0] 35 tst_mode nor02ii $T=2960 134450 1 180 $X=20 $Y=134450
X38 VSS VDD multiplierOut[8] 53 tst_mode nor02ii $T=6880 33630 1 180 $X=3940 $Y=33630
X39 VSS VDD multiplierOut[14] 55 tst_mode nor02ii $T=7370 84040 1 180 $X=4430 $Y=84040
X40 VSS VDD multiplierOut[9] 69 tst_mode nor02ii $T=12270 210065 1 180 $X=9330 $Y=210065
X41 VSS VDD multiplierOut[16] 70 tst_mode nor02ii $T=13250 58835 1 180 $X=10310 $Y=58835
X42 VSS VDD multiplierOut[15] 73 tst_mode nor02ii $T=13740 134450 1 180 $X=10800 $Y=134450
X43 VSS VDD multiplierOut[2] 88 tst_mode nor02ii $T=19130 8425 1 180 $X=16190 $Y=8425
X44 VSS VDD multiplierOut[30] 93 tst_mode nor02ii $T=20110 184860 1 180 $X=17170 $Y=184860
X45 VSS VDD multiplierOut[6] 96 tst_mode nor02ii $T=22070 8425 1 180 $X=19130 $Y=8425
X46 VSS VDD multiplierOut[28] 109 tst_mode nor02ii $T=25010 8425 1 180 $X=22070 $Y=8425
X47 VSS VDD multiplierOut[26] 118 tst_mode nor02ii $T=27460 33630 1 180 $X=24520 $Y=33630
X48 VSS VDD 121 101 103 nor02ii $T=26970 210065 0 0 $X=26970 $Y=210065
X49 VSS VDD multiplierOut[29] 123 tst_mode nor02ii $T=30890 109245 1 180 $X=27950 $Y=109245
X50 VSS VDD multiplierOut[27] 127 tst_mode nor02ii $T=30890 235270 1 180 $X=27950 $Y=235270
X51 VSS VDD 97 133 rst nor02ii $T=32360 285680 1 180 $X=29420 $Y=285680
X52 VSS VDD multiplierOut[5] 155 tst_mode nor02ii $T=40690 109245 1 180 $X=37750 $Y=109245
X53 VSS VDD multiplierOut[4] 169 tst_mode nor02ii $T=43630 109245 1 180 $X=40690 $Y=109245
X54 VSS VDD multiplierOut[12] 193 tst_mode nor02ii $T=51470 134450 1 180 $X=48530 $Y=134450
X55 VSS VDD 188 198 rst nor02ii $T=52940 210065 1 180 $X=50000 $Y=210065
X56 VSS VDD multiplierOut[13] 244 tst_mode nor02ii $T=69110 134450 1 180 $X=66170 $Y=134450
X57 VSS VDD 229 254 rst nor02ii $T=72540 184860 1 180 $X=69600 $Y=184860
X58 VSS VDD 236 268 rst nor02ii $T=76460 210065 1 180 $X=73520 $Y=210065
X59 VSS VDD 284 246 rst nor02ii $T=78910 235270 0 0 $X=78910 $Y=235270
X60 VSS VDD multiplierOut[31] 248 tst_mode nor02ii $T=90670 310885 0 0 $X=90670 $Y=310885
X61 VSS VDD multiplierOut[1] 339 tst_mode nor02ii $T=102920 84040 0 0 $X=102920 $Y=84040
X62 VSS VDD multiplierOut[22] 368 tst_mode nor02ii $T=108800 84040 1 180 $X=105860 $Y=84040
X63 VSS VDD 366 384 rst nor02ii $T=113700 235270 1 180 $X=110760 $Y=235270
X64 VSS VDD multiplierOut[10] 427 tst_mode nor02ii $T=127910 109245 1 180 $X=124970 $Y=109245
X65 VSS VDD multiplierOut[7] 437 tst_mode nor02ii $T=129870 58835 1 180 $X=126930 $Y=58835
X66 VSS VDD 422 460 rst nor02ii $T=135750 184860 1 180 $X=132810 $Y=184860
X67 VSS VDD multiplierOut[21] 462 tst_mode nor02ii $T=137220 260475 1 180 $X=134280 $Y=260475
X68 VSS VDD 464 470 rst nor02ii $T=139670 109245 1 180 $X=136730 $Y=109245
X69 VSS VDD 466 536 539 nor02ii $T=159760 210065 1 180 $X=156820 $Y=210065
X70 VSS VDD 274 534 436 nor02ii $T=159760 310885 1 180 $X=156820 $Y=310885
X71 VSS VDD 547 529 rst nor02ii $T=160740 84040 0 0 $X=160740 $Y=84040
X72 VSS VDD 564 557 rst nor02ii $T=165640 184860 0 0 $X=165640 $Y=184860
X73 VSS VDD multiplierOut[18] 600 tst_mode nor02ii $T=179850 8425 1 180 $X=176910 $Y=8425
X74 VSS VDD 496 589 595 nor02ii $T=180340 134450 1 180 $X=177400 $Y=134450
X75 VSS VDD 617 544 rst nor02ii $T=181810 235270 0 0 $X=181810 $Y=235270
X76 VSS VDD 541 589 621 nor02ii $T=185730 184860 1 180 $X=182790 $Y=184860
X77 VSS VDD 651 535 589 nor02ii $T=191610 235270 0 0 $X=191610 $Y=235270
X78 VSS VDD multiplierOut[11] 652 tst_mode nor02ii $T=196020 8425 1 180 $X=193080 $Y=8425
X79 VSS VDD 722 703 663 nor02ii $T=211210 310885 0 0 $X=211210 $Y=310885
X80 VSS VDD 736 733 rst nor02ii $T=219540 134450 0 0 $X=219540 $Y=134450
X81 VSS VDD 748 536 648 nor02ii $T=222480 134450 0 0 $X=222480 $Y=134450
X82 VSS VDD 713 742 752 nor02ii $T=226890 285680 1 180 $X=223950 $Y=285680
X83 VSS VDD multiplierOut[25] 765 tst_mode nor02ii $T=230320 58835 1 180 $X=227380 $Y=58835
X84 VSS VDD 805 803 rst nor02ii $T=244530 58835 0 0 $X=244530 $Y=58835
X85 VSS VDD 597 535 rst nor02ii $T=251390 210065 0 0 $X=251390 $Y=210065
X86 VSS VDD 857 844 rst nor02ii $T=260210 235270 0 0 $X=260210 $Y=235270
X87 VSS VDD 872 862 rst nor02ii $T=264130 8425 0 0 $X=264130 $Y=8425
X88 VSS VDD multiplierOut[23] 850 tst_mode nor02ii $T=267070 8425 0 0 $X=267070 $Y=8425
X89 VSS VDD 891 885 131 nor02ii $T=273440 235270 0 0 $X=273440 $Y=235270
X90 VSS VDD 866 903 rst nor02ii $T=282260 210065 1 180 $X=279320 $Y=210065
X91 VSS VDD 923 901 rst nor02ii $T=287160 260475 0 0 $X=287160 $Y=260475
X92 VSS VDD 932 919 rst nor02ii $T=289610 84040 0 0 $X=289610 $Y=84040
X93 VSS VDD multiplierOut[19] 944 tst_mode nor02ii $T=295000 336090 0 0 $X=295000 $Y=336090
X94 VSS VDD multiplierOut[24] 978 tst_mode nor02ii $T=321460 109245 0 0 $X=321460 $Y=109245
X95 VSS VDD 984 1001 rst nor02ii $T=328810 260475 1 180 $X=325870 $Y=260475
X96 VSS VDD multiplierOut[17] 948 tst_mode nor02ii $T=333220 260475 0 0 $X=333220 $Y=260475
X97 VSS VDD 1019 1017 rst nor02ii $T=339100 109245 1 180 $X=336160 $Y=109245
X98 VSS VDD multiplierOut[20] 983 tst_mode nor02ii $T=342040 285680 0 0 $X=342040 $Y=285680
X99 VSS VDD 129 135 139 xor2 $T=35300 184860 1 180 $X=30400 $Y=184860
X100 VSS VDD 144 137 113 xor2 $T=30890 235270 0 0 $X=30890 $Y=235270
X101 VSS VDD 165 174 37 xor2 $T=41180 235270 0 0 $X=41180 $Y=235270
X102 VSS VDD 242 255 273 xor2 $T=78910 235270 1 180 $X=74010 $Y=235270
X103 VSS VDD 277 271 241 xor2 $T=74990 184860 0 0 $X=74990 $Y=184860
X104 VSS VDD 283 275 253 xor2 $T=76460 210065 0 0 $X=76460 $Y=210065
X105 VSS VDD 293 95 108 xor2 $T=80870 134450 0 0 $X=80870 $Y=134450
X106 VSS VDD 304 328 278 xor2 $T=95570 84040 0 0 $X=95570 $Y=84040
X107 VSS VDD 338 332 206 xor2 $T=96550 210065 0 0 $X=96550 $Y=210065
X108 VSS VDD 402 397 343 xor2 $T=113700 235270 0 0 $X=113700 $Y=235270
X109 VSS VDD 474 466 440 xor2 $T=135750 184860 0 0 $X=135750 $Y=184860
X110 VSS VDD 480 482 442 xor2 $T=139670 84040 0 0 $X=139670 $Y=84040
X111 VSS VDD 499 496 486 xor2 $T=144570 58835 0 0 $X=144570 $Y=58835
X112 VSS VDD 526 541 562 xor2 $T=168580 84040 1 180 $X=163680 $Y=84040
X113 VSS VDD 552 598 581 xor2 $T=176910 210065 0 0 $X=176910 $Y=210065
X114 VSS VDD 655 662 290 xor2 $T=204350 58835 1 180 $X=199450 $Y=58835
X115 VSS VDD 721 698 710 xor2 $T=216600 109245 0 0 $X=216600 $Y=109245
X116 VSS VDD 717 706 753 xor2 $T=227380 184860 1 180 $X=222480 $Y=184860
X117 VSS VDD 747 667 778 xor2 $T=235710 336090 1 180 $X=230810 $Y=336090
X118 VSS VDD 786 420 771 xor2 $T=231790 310885 0 0 $X=231790 $Y=310885
X119 VSS VDD 791 676 779 xor2 $T=234730 58835 0 0 $X=234730 $Y=58835
X120 VSS VDD 833 793 821 xor2 $T=249920 134450 0 0 $X=249920 $Y=134450
X121 VSS VDD 834 711 823 xor2 $T=250410 235270 0 0 $X=250410 $Y=235270
X122 VSS VDD 858 802 884 xor2 $T=273930 33630 1 180 $X=269030 $Y=33630
X123 VSS VDD 878 748 877 xor2 $T=269520 134450 0 0 $X=269520 $Y=134450
X124 VSS VDD 894 794 882 xor2 $T=272460 210065 0 0 $X=272460 $Y=210065
X125 VSS VDD 899 774 909 xor2 $T=284710 84040 1 180 $X=279810 $Y=84040
X126 VSS VDD 892 782 914 xor2 $T=287160 260475 1 180 $X=282260 $Y=260475
X127 VSS VDD 928 755 924 xor2 $T=297940 210065 1 180 $X=293040 $Y=210065
X128 VSS VDD 935 695 933 xor2 $T=295000 235270 0 0 $X=295000 $Y=235270
X129 VSS VDD 942 770 943 xor2 $T=304310 109245 1 180 $X=299410 $Y=109245
X130 VSS VDD 960 745 969 xor2 $T=310680 260475 1 180 $X=305780 $Y=260475
X131 VSS VDD 996 691 991 xor2 $T=329300 210065 1 180 $X=324400 $Y=210065
X132 VSS VDD 1012 781 1021 xor2 $T=344000 109245 1 180 $X=339100 $Y=109245
X133 VSS VDD 23 44 41 32 A[9] ao22 $T=3940 33630 1 180 $X=20 $Y=33630
X134 VSS VDD 24 44 33 32 B[3] ao22 $T=3940 184860 1 180 $X=20 $Y=184860
X135 VSS VDD 40 44 50 32 A[8] ao22 $T=6880 134450 1 180 $X=2960 $Y=134450
X136 VSS VDD 63 59 58 60 A[15] ao22 $T=6880 134450 0 0 $X=6880 $Y=134450
X137 VSS VDD 84 44 74 32 A[13] ao22 $T=13250 260475 0 0 $X=13250 $Y=260475
X138 VSS VDD 89 59 71 60 A[14] ao22 $T=14720 159655 0 0 $X=14720 $Y=159655
X139 VSS VDD 158 44 91 32 A[11] ao22 $T=36770 260475 0 0 $X=36770 $Y=260475
X140 VSS VDD 159 44 87 32 A[10] ao22 $T=37260 58835 0 0 $X=37260 $Y=58835
X141 VSS VDD 185 44 180 32 B[7] ao22 $T=44610 134450 0 0 $X=44610 $Y=134450